<?xml version="1.0" encoding="UTF-8"?>

<configuration xmlns:xsi="http://www.w3.org/2001/XMLSchema-instance" xsi:noNamespaceSchemaLocation="http://sumo.dlr.de/xsd/sumoConfiguration.xsd">
   <input>
       <net-file value="../Tutorial 5 - ViewSetting/network.net.xml"/>
       <route-files value="../Tutorial 5 - ViewSetting/elem.rou.xml"/>
       <gui-settings-file value="../Tutorial 5 - ViewSetting/configuration.view.xml"/>
   </input>
</configuration>