<?xml version="1.0" encoding="UTF-8"?>

<!-- generated on 2022-09-29 17:08:43 by Eclipse SUMO netedit Version 1.14.1
<configuration xmlns:xsi="http://www.w3.org/2001/XMLSchema-instance" xsi:noNamespaceSchemaLocation="http://sumo.dlr.de/xsd/netconvertConfiguration.xsd">

    <output>
        <output-file value="C:\Users\Giuseppe\Desktop\Sumo%20Tutorials\network1_3.net.xml"/>
    </output>

    <processing>
        <offset.disable-normalization value="true"/>
    </processing>

    <junctions>
        <no-turnarounds value="true"/>
    </junctions>

</configuration>
-->

<net version="1.9" junctionCornerDetail="5" limitTurnSpeed="5.50" xmlns:xsi="http://www.w3.org/2001/XMLSchema-instance" xsi:noNamespaceSchemaLocation="http://sumo.dlr.de/xsd/net_file.xsd">

    <location netOffset="0.00,0.00" convBoundary="23.89,43.68,81.78,107.33" origBoundary="10000000000.00,10000000000.00,-10000000000.00,-10000000000.00" projParameter="!"/>

    <edge id=":J1_0" function="internal">
        <lane id=":J1_0_0" index="0" speed="25.00" length="0.10" shape="64.11,79.88 64.21,79.99"/>
        <lane id=":J1_0_1" index="1" speed="25.00" length="0.10" shape="61.77,82.06 61.80,82.09"/>
    </edge>
    <edge id=":J3_0" function="internal">
        <lane id=":J3_0_0" index="0" speed="36.11" length="0.10" shape="34.84,48.40 34.84,48.40"/>
        <lane id=":J3_0_1" index="1" speed="36.11" length="0.10" shape="32.49,50.58 32.49,50.58"/>
    </edge>
    <edge id=":J4_0" function="internal">
        <lane id=":J4_0_0" index="0" speed="13.89" length="0.10" shape="81.09,99.26 81.09,99.26"/>
        <lane id=":J4_0_1" index="1" speed="13.89" length="0.10" shape="78.69,101.36 78.69,101.36"/>
    </edge>

    <edge id="edge1" from="J1" to="J4" priority="-1">
        <lane id="edge1_0" index="0" speed="13.89" length="25.62" shape="64.21,79.99 81.09,99.26"/>
        <lane id="edge1_1" index="1" speed="13.89" length="25.62" shape="61.80,82.09 78.69,101.36"/>
    </edge>
    <edge id="entry" from="J0" to="J3" priority="-1">
        <lane id="entry_0" index="0" speed="36.11" length="10.91" shape="27.41,40.41 34.84,48.40"/>
        <lane id="entry_1" index="1" speed="36.11" length="10.91" shape="25.06,42.59 32.49,50.58"/>
    </edge>
    <edge id="exit" from="J4" to="J2" priority="-1">
        <lane id="exit_0" index="0" speed="13.89" length="6.52" shape="81.09,99.26 85.39,104.16"/>
        <lane id="exit_1" index="1" speed="13.89" length="6.52" shape="78.69,101.36 82.99,106.27"/>
    </edge>
    <edge id="longEdge" from="J3" to="J1" priority="-1">
        <lane id="longEdge_0" index="0" speed="36.11" length="42.99" shape="34.84,48.40 64.11,79.88"/>
        <lane id="longEdge_1" index="1" speed="36.11" length="42.99" shape="32.49,50.58 61.77,82.06"/>
    </edge>

    <junction id="J0" type="dead_end" x="23.89" y="43.68" incLanes="" intLanes="" shape="23.89,43.68 28.58,39.32"/>
    <junction id="J1" type="priority" x="60.60" y="83.15" incLanes="longEdge_0 longEdge_1" intLanes=":J1_0_0 :J1_0_1" shape="60.65,83.21 65.46,78.99 65.23,78.73 60.54,83.09">
        <request index="0" response="00" foes="00" cont="0"/>
        <request index="1" response="00" foes="00" cont="0"/>
    </junction>
    <junction id="J2" type="dead_end" x="81.78" y="107.33" incLanes="exit_0 exit_1" intLanes="" shape="86.60,103.11 81.78,107.33"/>
    <junction id="J3" type="priority" x="31.32" y="51.67" incLanes="entry_0 entry_1" intLanes=":J3_0_0 :J3_0_1" shape="31.32,51.67 36.01,47.31 31.32,51.67">
        <request index="0" response="00" foes="00" cont="0"/>
        <request index="1" response="00" foes="00" cont="0"/>
    </junction>
    <junction id="J4" type="priority" x="77.48" y="102.42" incLanes="edge1_0 edge1_1" intLanes=":J4_0_0 :J4_0_1" shape="77.48,102.42 82.30,98.20 77.48,102.42">
        <request index="0" response="00" foes="00" cont="0"/>
        <request index="1" response="00" foes="00" cont="0"/>
    </junction>

    <connection from="edge1" to="exit" fromLane="0" toLane="0" via=":J4_0_0" dir="s" state="M"/>
    <connection from="edge1" to="exit" fromLane="1" toLane="1" via=":J4_0_1" dir="s" state="M"/>
    <connection from="entry" to="longEdge" fromLane="0" toLane="0" via=":J3_0_0" dir="s" state="M"/>
    <connection from="entry" to="longEdge" fromLane="1" toLane="1" via=":J3_0_1" dir="s" state="M"/>
    <connection from="longEdge" to="edge1" fromLane="0" toLane="0" via=":J1_0_0" dir="s" state="M"/>
    <connection from="longEdge" to="edge1" fromLane="1" toLane="1" via=":J1_0_1" dir="s" state="M"/>

    <connection from=":J1_0" to="edge1" fromLane="0" toLane="0" dir="s" state="M"/>
    <connection from=":J1_0" to="edge1" fromLane="1" toLane="1" dir="s" state="M"/>
    <connection from=":J3_0" to="longEdge" fromLane="0" toLane="0" dir="s" state="M"/>
    <connection from=":J3_0" to="longEdge" fromLane="1" toLane="1" dir="s" state="M"/>
    <connection from=":J4_0" to="exit" fromLane="0" toLane="0" dir="s" state="M"/>
    <connection from=":J4_0" to="exit" fromLane="1" toLane="1" dir="s" state="M"/>

</net>
