<?xml version="1.0" encoding="UTF-8"?>

<!-- generated on 2022-09-30 14:07:40 by Eclipse SUMO netedit Version 1.14.1
<configuration xmlns:xsi="http://www.w3.org/2001/XMLSchema-instance" xsi:noNamespaceSchemaLocation="http://sumo.dlr.de/xsd/netconvertConfiguration.xsd">

    <input>
        <sumo-net-file value="network1_3.net.xml"/>
    </input>

    <output>
        <output-file value="network1_3.net.xml"/>
    </output>

    <processing>
        <geometry.min-radius.fix.railways value="false"/>
        <geometry.max-grade.fix value="false"/>
        <offset.disable-normalization value="true"/>
        <lefthand value="false"/>
    </processing>

    <junctions>
        <no-turnarounds value="true"/>
        <junctions.corner-detail value="5"/>
        <junctions.limit-turn-speed value="5.5"/>
        <rectangular-lane-cut value="false"/>
    </junctions>

    <pedestrian>
        <walkingareas value="false"/>
    </pedestrian>

</configuration>
-->

<net version="1.9" junctionCornerDetail="5" limitTurnSpeed="5.50" xmlns:xsi="http://www.w3.org/2001/XMLSchema-instance" xsi:noNamespaceSchemaLocation="http://sumo.dlr.de/xsd/net_file.xsd">

    <location netOffset="0.00,0.00" convBoundary="-2.28,16.88,73.31,62.60" origBoundary="-10000000000.00,-10000000000.00,10000000000.00,10000000000.00" projParameter="!"/>

    <edge id=":J0_0" function="internal">
        <lane id=":J0_0_0" index="0" speed="3.90" length="2.78" shape="-0.53,59.12 -0.45,59.89 -0.14,60.43 0.40,60.73 1.17,60.79"/>
    </edge>
    <edge id=":J1_0" function="internal">
        <lane id=":J1_0_0" index="0" speed="6.35" length="9.04" shape="35.09,58.75 37.54,58.25 39.18,57.07 40.02,55.24 40.04,52.73"/>
    </edge>
    <edge id=":J1_1" function="internal">
        <lane id=":J1_1_0" index="0" speed="13.89" length="11.41" shape="35.09,58.75 46.48,57.99"/>
    </edge>
    <edge id=":J2_0" function="internal">
        <lane id=":J2_0_0" index="0" speed="7.82" length="8.50" shape="38.07,38.21 37.53,35.55 36.68,33.48 35.54,32.01 34.10,31.13"/>
    </edge>
    <edge id=":J2_1" function="internal">
        <lane id=":J2_1_0" index="0" speed="13.89" length="9.44" shape="42.23,35.79 40.00,34.09 38.41,33.00 36.70,32.14 34.10,31.13"/>
    </edge>
    <edge id=":J3_0" function="internal">
        <lane id=":J3_0_0" index="0" speed="3.92" length="3.21" shape="3.26,19.88 2.35,19.69 1.69,19.86 1.28,20.41 1.11,21.31"/>
    </edge>
    <edge id=":J4_0" function="internal">
        <lane id=":J4_0_0" index="0" speed="4.17" length="5.08" shape="64.84,56.51 66.46,56.21 67.14,55.63 66.88,54.78 65.68,53.65"/>
    </edge>

    <edge id="edge0" from="J0" to="J1" priority="-1">
        <lane id="edge0_0" index="0" speed="13.89" length="33.99" shape="1.17,60.79 35.09,58.75"/>
    </edge>
    <edge id="edge1" from="J1" to="J2" priority="-1">
        <lane id="edge1_0" index="0" speed="13.89" length="14.66" shape="40.04,52.73 38.07,38.21"/>
    </edge>
    <edge id="edge2" from="J2" to="J3" priority="-1">
        <lane id="edge2_0" index="0" speed="13.89" length="32.83" shape="34.10,31.13 3.26,19.88"/>
    </edge>
    <edge id="edge3" from="J3" to="J0" priority="-1">
        <lane id="edge3_0" index="0" speed="13.89" length="37.84" shape="1.11,21.31 -0.53,59.12"/>
    </edge>
    <edge id="edge4" from="J1" to="J4" priority="-1">
        <lane id="edge4_0" index="0" speed="13.89" length="18.42" shape="46.48,57.99 64.84,56.51"/>
    </edge>
    <edge id="edge5" from="J4" to="J2" priority="-1">
        <lane id="edge5_0" index="0" speed="13.89" length="29.48" shape="65.68,53.65 42.23,35.79"/>
    </edge>

    <junction id="J0" type="priority" x="-2.28" y="62.60" incLanes="edge3_0" intLanes=":J0_0_0" shape="1.26,62.39 1.07,59.19 -2.13,59.05 -1.82,61.00 -1.36,61.66 -0.69,62.11 0.18,62.35">
        <request index="0" response="0" foes="0" cont="0"/>
    </junction>
    <junction id="J1" type="priority" x="42.62" y="59.90" incLanes="edge0_0" intLanes=":J1_0_0 :J1_1_0" shape="46.61,59.58 46.35,56.39 43.98,56.11 43.09,55.59 42.40,54.82 41.91,53.80 41.62,52.52 38.45,52.95 38.31,55.18 37.85,55.98 37.15,56.58 36.20,56.97 34.99,57.15 35.19,60.35">
        <request index="0" response="00" foes="00" cont="0"/>
        <request index="1" response="00" foes="00" cont="0"/>
    </junction>
    <junction id="J2" type="priority" x="38.73" y="31.12" incLanes="edge1_0 edge5_0" intLanes=":J2_0_0 :J2_1_0" shape="36.49,38.43 39.66,38.00 39.69,36.83 39.90,36.57 40.23,36.52 40.68,36.69 41.26,37.07 43.20,34.52 41.52,33.24 40.27,32.30 39.19,31.59 38.05,30.98 36.61,30.37 34.65,29.63 33.55,32.64 34.88,33.65 35.42,34.50 35.86,35.58 36.22,36.89">
        <request index="0" response="00" foes="10" cont="0"/>
        <request index="1" response="01" foes="01" cont="0"/>
    </junction>
    <junction id="J3" type="priority" x="-0.30" y="16.88" incLanes="edge2_0" intLanes=":J3_0_0" shape="2.71,21.38 3.80,18.38 1.50,18.03 0.68,18.35 0.07,18.99 -0.32,19.95 -0.49,21.25">
        <request index="0" response="0" foes="0" cont="0"/>
    </junction>
    <junction id="J4" type="priority" x="73.31" y="57.44" incLanes="edge4_0" intLanes=":J4_0_0" shape="66.65,52.37 64.71,54.92 64.97,58.11 67.33,57.76 68.86,57.17 69.56,56.34 69.42,55.26 68.45,53.94">
        <request index="0" response="0" foes="0" cont="0"/>
    </junction>

    <connection from="edge0" to="edge1" fromLane="0" toLane="0" via=":J1_0_0" dir="r" state="M"/>
    <connection from="edge0" to="edge4" fromLane="0" toLane="0" via=":J1_1_0" dir="s" state="M"/>
    <connection from="edge1" to="edge2" fromLane="0" toLane="0" via=":J2_0_0" dir="r" state="M"/>
    <connection from="edge2" to="edge3" fromLane="0" toLane="0" via=":J3_0_0" dir="r" state="M"/>
    <connection from="edge3" to="edge0" fromLane="0" toLane="0" via=":J0_0_0" dir="r" state="M"/>
    <connection from="edge4" to="edge5" fromLane="0" toLane="0" via=":J4_0_0" dir="r" state="M"/>
    <connection from="edge5" to="edge2" fromLane="0" toLane="0" via=":J2_1_0" dir="s" state="m"/>

    <connection from=":J0_0" to="edge0" fromLane="0" toLane="0" dir="r" state="M"/>
    <connection from=":J1_0" to="edge1" fromLane="0" toLane="0" dir="r" state="M"/>
    <connection from=":J1_1" to="edge4" fromLane="0" toLane="0" dir="s" state="M"/>
    <connection from=":J2_0" to="edge2" fromLane="0" toLane="0" dir="r" state="M"/>
    <connection from=":J2_1" to="edge2" fromLane="0" toLane="0" dir="s" state="M"/>
    <connection from=":J3_0" to="edge3" fromLane="0" toLane="0" dir="r" state="M"/>
    <connection from=":J4_0" to="edge5" fromLane="0" toLane="0" dir="r" state="M"/>

</net>
