<?xml version="1.0" encoding="UTF-8"?>

<!-- generated on 2022-10-12 19:21:55.228278 by randomTrips.py v1_14_1+0000-f654d7b963e
<configuration>
    <begin value="0"/>
    <end value="2000"/>
    <net-file value="network1_3.net.xml"/>
    <period value="1.0"/>
    <random value="True"/>
    <route-file value="elem.rou.xml"/>
    <trip-attributes value="departEdge=&quot;random&quot; departLane=&quot;best&quot;"/>
    <output-trip-file value="trip.trips.xml"/>
    <vehicle-class value="passenger"/>
</configuration>
-->

<!-- generated on 2022-10-12 19:21:55 by Eclipse SUMO duarouter Version 1.14.1
<configuration xmlns:xsi="http://www.w3.org/2001/XMLSchema-instance" xsi:noNamespaceSchemaLocation="http://sumo.dlr.de/xsd/duarouterConfiguration.xsd">

    <input>
        <net-file value="network1_3.net.xml"/>
        <route-files value="trip.trips.xml"/>
    </input>

    <output>
        <output-file value="elem.rou.xml"/>
        <alternatives-output value="NUL"/>
    </output>

    <time>
        <begin value="0"/>
        <end value="2000"/>
    </time>

    <report>
        <no-warnings value="true"/>
        <ignore-errors value="true"/>
        <no-step-log value="true"/>
    </report>

</configuration>
-->

<routes xmlns:xsi="http://www.w3.org/2001/XMLSchema-instance" xsi:noNamespaceSchemaLocation="http://sumo.dlr.de/xsd/routes_file.xsd">
    <vType id="passenger" vClass="passenger"/>
    <vehicle id="0" type="passenger" depart="0.00" departLane="best" departEdge="random">
        <route edges="E32 E33 E36 E37"/>
    </vehicle>
    <!--<vehicle id="2" type="passenger" depart="2.00" departLane="best" departEdge="random">
        <route edges="E35 E32 E33 E36"/>
    </vehicle>
    <vehicle id="4" type="passenger" depart="4.00" departLane="best" departEdge="random">
        <route edges="E34 E35 E32 E33 E36 E37"/>
    </vehicle>-->
    <vehicle id="5" type="passenger" depart="5.00" departLane="best" departEdge="random">
        <route edges="E33 E34 E35 E32"/>
    </vehicle>
    <!--<vehicle id="6" type="passenger" depart="6.00" departLane="best" departEdge="random">
        <route edges="E33"/>
    </vehicle>
    <vehicle id="7" type="passenger" depart="7.00" departLane="best" departEdge="random">
        <route edges="E32 E33"/>
    </vehicle>
    <vehicle id="8" type="passenger" depart="8.00" departLane="best" departEdge="random">
        <route edges="E39 E40 E35"/>
    </vehicle>
    <vehicle id="9" type="passenger" depart="9.00" departLane="best" departEdge="random">
        <route edges="E35 E32 E33 E36 E37"/>
    </vehicle>
    <vehicle id="10" type="passenger" depart="10.00" departLane="best" departEdge="random">
        <route edges="E34"/>
    </vehicle>
    <vehicle id="12" type="passenger" depart="12.00" departLane="best" departEdge="random">
        <route edges="E33"/>
    </vehicle>
    <vehicle id="13" type="passenger" depart="13.00" departLane="best" departEdge="random">
        <route edges="E39 E41"/>
    </vehicle>
    <vehicle id="16" type="passenger" depart="16.00" departLane="best" departEdge="random">
        <route edges="E33 E36 E37"/>
    </vehicle>
    <vehicle id="17" type="passenger" depart="17.00" departLane="best" departEdge="random">
        <route edges="E33 E34 E35"/>
    </vehicle>
    <vehicle id="20" type="passenger" depart="20.00" departLane="best" departEdge="random">
        <route edges="E36"/>
    </vehicle>
    <vehicle id="22" type="passenger" depart="22.00" departLane="best" departEdge="random">
        <route edges="E36"/>
    </vehicle>
    <vehicle id="23" type="passenger" depart="23.00" departLane="best" departEdge="random">
        <route edges="E33 E34"/>
    </vehicle>
    <vehicle id="25" type="passenger" depart="25.00" departLane="best" departEdge="random">
        <route edges="E40 E35"/>
    </vehicle>
    <vehicle id="27" type="passenger" depart="27.00" departLane="best" departEdge="random">
        <route edges="E35"/>
    </vehicle>
    <vehicle id="28" type="passenger" depart="28.00" departLane="best" departEdge="random">
        <route edges="E33 E34"/>
    </vehicle>
    <vehicle id="30" type="passenger" depart="30.00" departLane="best" departEdge="random">
        <route edges="E35 E32"/>
    </vehicle>
    <vehicle id="31" type="passenger" depart="31.00" departLane="best" departEdge="random">
        <route edges="E36 E37"/>
    </vehicle>
    <vehicle id="33" type="passenger" depart="33.00" departLane="best" departEdge="random">
        <route edges="E39 E40 E35 E32"/>
    </vehicle>
    <vehicle id="36" type="passenger" depart="36.00" departLane="best" departEdge="random">
        <route edges="E40 E35 E32 E33 E36"/>
    </vehicle>
    <vehicle id="38" type="passenger" depart="38.00" departLane="best" departEdge="random">
        <route edges="E35 E32 E33 E34"/>
    </vehicle>
    <vehicle id="39" type="passenger" depart="39.00" departLane="best" departEdge="random">
        <route edges="E35 E32 E33"/>
    </vehicle>
    <vehicle id="40" type="passenger" depart="40.00" departLane="best" departEdge="random">
        <route edges="E39 E40 E35 E32 E33 E34"/>
    </vehicle>
    <vehicle id="41" type="passenger" depart="41.00" departLane="best" departEdge="random">
        <route edges="E38 E35 E32 E33"/>
    </vehicle>
    <vehicle id="42" type="passenger" depart="42.00" departLane="best" departEdge="random">
        <route edges="E32 E33 E36 E37"/>
    </vehicle>
    <vehicle id="44" type="passenger" depart="44.00" departLane="best" departEdge="random">
        <route edges="E35"/>
    </vehicle>
    <vehicle id="49" type="passenger" depart="49.00" departLane="best" departEdge="random">
        <route edges="E40 E35 E32 E33"/>
    </vehicle>
    <vehicle id="50" type="passenger" depart="50.00" departLane="best" departEdge="random">
        <route edges="E39 E41"/>
    </vehicle>
    <vehicle id="51" type="passenger" depart="51.00" departLane="best" departEdge="random">
        <route edges="E39 E40 E35 E32"/>
    </vehicle>
    <vehicle id="52" type="passenger" depart="52.00" departLane="best" departEdge="random">
        <route edges="E38 E35 E32"/>
    </vehicle>
    <vehicle id="53" type="passenger" depart="53.00" departLane="best" departEdge="random">
        <route edges="E36 E37"/>
    </vehicle>
    <vehicle id="54" type="passenger" depart="54.00" departLane="best" departEdge="random">
        <route edges="E39 E40 E35 E32 E33 E36"/>
    </vehicle>
    <vehicle id="57" type="passenger" depart="57.00" departLane="best" departEdge="random">
        <route edges="E32"/>
    </vehicle>
    <vehicle id="58" type="passenger" depart="58.00" departLane="best" departEdge="random">
        <route edges="E34 E35 E32 E33"/>
    </vehicle>
    <vehicle id="59" type="passenger" depart="59.00" departLane="best" departEdge="random">
        <route edges="E39 E41"/>
    </vehicle>
    <vehicle id="60" type="passenger" depart="60.00" departLane="best" departEdge="random">
        <route edges="E39 E41"/>
    </vehicle>
    <vehicle id="61" type="passenger" depart="61.00" departLane="best" departEdge="random">
        <route edges="E38 E35"/>
    </vehicle>
    <vehicle id="62" type="passenger" depart="62.00" departLane="best" departEdge="random">
        <route edges="E39 E40 E35 E32 E33 E36"/>
    </vehicle>
    <vehicle id="65" type="passenger" depart="65.00" departLane="best" departEdge="random">
        <route edges="E35 E32 E33"/>
    </vehicle>
    <vehicle id="66" type="passenger" depart="66.00" departLane="best" departEdge="random">
        <route edges="E40 E35"/>
    </vehicle>
    <vehicle id="68" type="passenger" depart="68.00" departLane="best" departEdge="random">
        <route edges="E39 E40 E35"/>
    </vehicle>
    <vehicle id="69" type="passenger" depart="69.00" departLane="best" departEdge="random">
        <route edges="E35 E32"/>
    </vehicle>
    <vehicle id="70" type="passenger" depart="70.00" departLane="best" departEdge="random">
        <route edges="E35 E32 E33"/>
    </vehicle>
    <vehicle id="71" type="passenger" depart="71.00" departLane="best" departEdge="random">
        <route edges="E33 E34"/>
    </vehicle>
    <vehicle id="72" type="passenger" depart="72.00" departLane="best" departEdge="random">
        <route edges="E32"/>
    </vehicle>
    <vehicle id="73" type="passenger" depart="73.00" departLane="best" departEdge="random">
        <route edges="E33 E34"/>
    </vehicle>
    <vehicle id="75" type="passenger" depart="75.00" departLane="best" departEdge="random">
        <route edges="E35 E32"/>
    </vehicle>
    <vehicle id="76" type="passenger" depart="76.00" departLane="best" departEdge="random">
        <route edges="E35 E32 E33"/>
    </vehicle>
    <vehicle id="80" type="passenger" depart="80.00" departLane="best" departEdge="random">
        <route edges="E32 E33 E34"/>
    </vehicle>
    <vehicle id="81" type="passenger" depart="81.00" departLane="best" departEdge="random">
        <route edges="E41"/>
    </vehicle>
    <vehicle id="82" type="passenger" depart="82.00" departLane="best" departEdge="random">
        <route edges="E38 E35 E32 E33 E36 E37"/>
    </vehicle>
    <vehicle id="83" type="passenger" depart="83.00" departLane="best" departEdge="random">
        <route edges="E36"/>
    </vehicle>
    <vehicle id="84" type="passenger" depart="84.00" departLane="best" departEdge="random">
        <route edges="E33 E34 E35 E32"/>
    </vehicle>
    <vehicle id="85" type="passenger" depart="85.00" departLane="best" departEdge="random">
        <route edges="E40 E35 E32 E33 E36"/>
    </vehicle>
    <vehicle id="86" type="passenger" depart="86.00" departLane="best" departEdge="random">
        <route edges="E35 E32"/>
    </vehicle>
    <vehicle id="87" type="passenger" depart="87.00" departLane="best" departEdge="random">
        <route edges="E33 E34 E35 E32"/>
    </vehicle>
    <vehicle id="88" type="passenger" depart="88.00" departLane="best" departEdge="random">
        <route edges="E35 E32"/>
    </vehicle>
    <vehicle id="89" type="passenger" depart="89.00" departLane="best" departEdge="random">
        <route edges="E34 E35 E32"/>
    </vehicle>
    <vehicle id="90" type="passenger" depart="90.00" departLane="best" departEdge="random">
        <route edges="E34 E35 E32 E33"/>
    </vehicle>
    <vehicle id="91" type="passenger" depart="91.00" departLane="best" departEdge="random">
        <route edges="E38 E35 E32 E33 E36 E37"/>
    </vehicle>
    <vehicle id="92" type="passenger" depart="92.00" departLane="best" departEdge="random">
        <route edges="E35 E32"/>
    </vehicle>
    <vehicle id="93" type="passenger" depart="93.00" departLane="best" departEdge="random">
        <route edges="E34 E35 E32 E33 E36 E37"/>
    </vehicle>
    <vehicle id="95" type="passenger" depart="95.00" departLane="best" departEdge="random">
        <route edges="E39 E40 E35 E32 E33 E36"/>
    </vehicle>
    <vehicle id="100" type="passenger" depart="100.00" departLane="best" departEdge="random">
        <route edges="E32"/>
    </vehicle>
    <vehicle id="101" type="passenger" depart="101.00" departLane="best" departEdge="random">
        <route edges="E33"/>
    </vehicle>
    <vehicle id="102" type="passenger" depart="102.00" departLane="best" departEdge="random">
        <route edges="E38 E35 E32"/>
    </vehicle>
    <vehicle id="103" type="passenger" depart="103.00" departLane="best" departEdge="random">
        <route edges="E34 E35"/>
    </vehicle>
    <vehicle id="104" type="passenger" depart="104.00" departLane="best" departEdge="random">
        <route edges="E35 E32"/>
    </vehicle>
    <vehicle id="105" type="passenger" depart="105.00" departLane="best" departEdge="random">
        <route edges="E35 E32 E33 E36 E37"/>
    </vehicle>
    <vehicle id="107" type="passenger" depart="107.00" departLane="best" departEdge="random">
        <route edges="E34 E35 E32 E33 E36 E37"/>
    </vehicle>
    <vehicle id="108" type="passenger" depart="108.00" departLane="best" departEdge="random">
        <route edges="E40 E35 E32"/>
    </vehicle>
    <vehicle id="109" type="passenger" depart="109.00" departLane="best" departEdge="random">
        <route edges="E36 E37"/>
    </vehicle>
    <vehicle id="110" type="passenger" depart="110.00" departLane="best" departEdge="random">
        <route edges="E38 E35 E32 E33 E34"/>
    </vehicle>
    <vehicle id="111" type="passenger" depart="111.00" departLane="best" departEdge="random">
        <route edges="E38 E35 E32"/>
    </vehicle>
    <vehicle id="113" type="passenger" depart="113.00" departLane="best" departEdge="random">
        <route edges="E33 E34 E35"/>
    </vehicle>
    <vehicle id="115" type="passenger" depart="115.00" departLane="best" departEdge="random">
        <route edges="E34 E35 E32 E33 E36"/>
    </vehicle>
    <vehicle id="116" type="passenger" depart="116.00" departLane="best" departEdge="random">
        <route edges="E41"/>
    </vehicle>
    <vehicle id="117" type="passenger" depart="117.00" departLane="best" departEdge="random">
        <route edges="E35 E32 E33 E34"/>
    </vehicle>
    <vehicle id="118" type="passenger" depart="118.00" departLane="best" departEdge="random">
        <route edges="E36 E37"/>
    </vehicle>
    <vehicle id="120" type="passenger" depart="120.00" departLane="best" departEdge="random">
        <route edges="E35 E32 E33 E34"/>
    </vehicle>
    <vehicle id="121" type="passenger" depart="121.00" departLane="best" departEdge="random">
        <route edges="E33"/>
    </vehicle>
    <vehicle id="122" type="passenger" depart="122.00" departLane="best" departEdge="random">
        <route edges="E40"/>
    </vehicle>
    <vehicle id="127" type="passenger" depart="127.00" departLane="best" departEdge="random">
        <route edges="E39 E40"/>
    </vehicle>
    <vehicle id="129" type="passenger" depart="129.00" departLane="best" departEdge="random">
        <route edges="E35 E32"/>
    </vehicle>
    <vehicle id="130" type="passenger" depart="130.00" departLane="best" departEdge="random">
        <route edges="E39 E40 E35 E32 E33 E36"/>
    </vehicle>
    <vehicle id="131" type="passenger" depart="131.00" departLane="best" departEdge="random">
        <route edges="E39 E41"/>
    </vehicle>
    <vehicle id="132" type="passenger" depart="132.00" departLane="best" departEdge="random">
        <route edges="E39 E40 E35 E32"/>
    </vehicle>
    <vehicle id="134" type="passenger" depart="134.00" departLane="best" departEdge="random">
        <route edges="E38 E35 E32"/>
    </vehicle>
    <vehicle id="135" type="passenger" depart="135.00" departLane="best" departEdge="random">
        <route edges="E41"/>
    </vehicle>
    <vehicle id="136" type="passenger" depart="136.00" departLane="best" departEdge="random">
        <route edges="E35 E32 E33 E36 E37"/>
    </vehicle>
    <vehicle id="138" type="passenger" depart="138.00" departLane="best" departEdge="random">
        <route edges="E33 E36"/>
    </vehicle>
    <vehicle id="140" type="passenger" depart="140.00" departLane="best" departEdge="random">
        <route edges="E33 E36 E37"/>
    </vehicle>
    <vehicle id="141" type="passenger" depart="141.00" departLane="best" departEdge="random">
        <route edges="E34 E35 E32 E33 E36"/>
    </vehicle>
    <vehicle id="143" type="passenger" depart="143.00" departLane="best" departEdge="random">
        <route edges="E33 E34 E35"/>
    </vehicle>
    <vehicle id="144" type="passenger" depart="144.00" departLane="best" departEdge="random">
        <route edges="E39 E40 E35 E32"/>
    </vehicle>
    <vehicle id="146" type="passenger" depart="146.00" departLane="best" departEdge="random">
        <route edges="E40 E35 E32 E33 E36 E37"/>
    </vehicle>
    <vehicle id="148" type="passenger" depart="148.00" departLane="best" departEdge="random">
        <route edges="E35 E32"/>
    </vehicle>
    <vehicle id="150" type="passenger" depart="150.00" departLane="best" departEdge="random">
        <route edges="E39 E40 E35 E32"/>
    </vehicle>
    <vehicle id="151" type="passenger" depart="151.00" departLane="best" departEdge="random">
        <route edges="E39 E40 E35 E32 E33"/>
    </vehicle>
    <vehicle id="152" type="passenger" depart="152.00" departLane="best" departEdge="random">
        <route edges="E38 E35 E32 E33 E34"/>
    </vehicle>
    <vehicle id="153" type="passenger" depart="153.00" departLane="best" departEdge="random">
        <route edges="E33 E34 E35"/>
    </vehicle>
    <vehicle id="155" type="passenger" depart="155.00" departLane="best" departEdge="random">
        <route edges="E35 E32 E33"/>
    </vehicle>
    <vehicle id="156" type="passenger" depart="156.00" departLane="best" departEdge="random">
        <route edges="E40 E35 E32 E33 E36"/>
    </vehicle>
    <vehicle id="157" type="passenger" depart="157.00" departLane="best" departEdge="random">
        <route edges="E40 E35 E32 E33 E36"/>
    </vehicle>
    <vehicle id="158" type="passenger" depart="158.00" departLane="best" departEdge="random">
        <route edges="E39 E40"/>
    </vehicle>
    <vehicle id="159" type="passenger" depart="159.00" departLane="best" departEdge="random">
        <route edges="E32 E33 E36 E37"/>
    </vehicle>
    <vehicle id="160" type="passenger" depart="160.00" departLane="best" departEdge="random">
        <route edges="E34 E35 E32 E33 E36"/>
    </vehicle>
    <vehicle id="161" type="passenger" depart="161.00" departLane="best" departEdge="random">
        <route edges="E35 E32 E33 E36"/>
    </vehicle>
    <vehicle id="162" type="passenger" depart="162.00" departLane="best" departEdge="random">
        <route edges="E32 E33 E34"/>
    </vehicle>
    <vehicle id="163" type="passenger" depart="163.00" departLane="best" departEdge="random">
        <route edges="E40 E35 E32 E33 E34"/>
    </vehicle>
    <vehicle id="164" type="passenger" depart="164.00" departLane="best" departEdge="random">
        <route edges="E34 E35 E32"/>
    </vehicle>
    <vehicle id="165" type="passenger" depart="165.00" departLane="best" departEdge="random">
        <route edges="E34 E35 E32 E33"/>
    </vehicle>
    <vehicle id="167" type="passenger" depart="167.00" departLane="best" departEdge="random">
        <route edges="E35 E32 E33 E36"/>
    </vehicle>
    <vehicle id="169" type="passenger" depart="169.00" departLane="best" departEdge="random">
        <route edges="E40 E35 E32 E33 E34"/>
    </vehicle>
    <vehicle id="171" type="passenger" depart="171.00" departLane="best" departEdge="random">
        <route edges="E35"/>
    </vehicle>
    <vehicle id="172" type="passenger" depart="172.00" departLane="best" departEdge="random">
        <route edges="E32 E33 E36 E37"/>
    </vehicle>
    <vehicle id="173" type="passenger" depart="173.00" departLane="best" departEdge="random">
        <route edges="E38 E35 E32 E33"/>
    </vehicle>
    <vehicle id="174" type="passenger" depart="174.00" departLane="best" departEdge="random">
        <route edges="E33 E36"/>
    </vehicle>
    <vehicle id="175" type="passenger" depart="175.00" departLane="best" departEdge="random">
        <route edges="E33 E34 E35"/>
    </vehicle>
    <vehicle id="176" type="passenger" depart="176.00" departLane="best" departEdge="random">
        <route edges="E40 E35"/>
    </vehicle>
    <vehicle id="177" type="passenger" depart="177.00" departLane="best" departEdge="random">
        <route edges="E38 E35"/>
    </vehicle>
    <vehicle id="178" type="passenger" depart="178.00" departLane="best" departEdge="random">
        <route edges="E35 E32"/>
    </vehicle>
    <vehicle id="179" type="passenger" depart="179.00" departLane="best" departEdge="random">
        <route edges="E35 E32"/>
    </vehicle>
    <vehicle id="182" type="passenger" depart="182.00" departLane="best" departEdge="random">
        <route edges="E33 E34 E35 E32"/>
    </vehicle>
    <vehicle id="184" type="passenger" depart="184.00" departLane="best" departEdge="random">
        <route edges="E33 E34"/>
    </vehicle>
    <vehicle id="185" type="passenger" depart="185.00" departLane="best" departEdge="random">
        <route edges="E38 E35 E32 E33 E34"/>
    </vehicle>
    <vehicle id="186" type="passenger" depart="186.00" departLane="best" departEdge="random">
        <route edges="E38 E35 E32 E33 E36"/>
    </vehicle>
    <vehicle id="187" type="passenger" depart="187.00" departLane="best" departEdge="random">
        <route edges="E39 E40 E35 E32"/>
    </vehicle>
    <vehicle id="188" type="passenger" depart="188.00" departLane="best" departEdge="random">
        <route edges="E38 E35"/>
    </vehicle>
    <vehicle id="189" type="passenger" depart="189.00" departLane="best" departEdge="random">
        <route edges="E38 E35 E32 E33"/>
    </vehicle>
    <vehicle id="190" type="passenger" depart="190.00" departLane="best" departEdge="random">
        <route edges="E33 E36"/>
    </vehicle>
    <vehicle id="192" type="passenger" depart="192.00" departLane="best" departEdge="random">
        <route edges="E35 E32 E33 E34"/>
    </vehicle>
    <vehicle id="194" type="passenger" depart="194.00" departLane="best" departEdge="random">
        <route edges="E34 E35 E32 E33 E36"/>
    </vehicle>
    <vehicle id="195" type="passenger" depart="195.00" departLane="best" departEdge="random">
        <route edges="E35 E32 E33"/>
    </vehicle>
    <vehicle id="196" type="passenger" depart="196.00" departLane="best" departEdge="random">
        <route edges="E34"/>
    </vehicle>
    <vehicle id="197" type="passenger" depart="197.00" departLane="best" departEdge="random">
        <route edges="E39 E40 E35 E32 E33 E34"/>
    </vehicle>
    <vehicle id="198" type="passenger" depart="198.00" departLane="best" departEdge="random">
        <route edges="E35 E32 E33"/>
    </vehicle>
    <vehicle id="199" type="passenger" depart="199.00" departLane="best" departEdge="random">
        <route edges="E39 E40 E35"/>
    </vehicle>
    <vehicle id="200" type="passenger" depart="200.00" departLane="best" departEdge="random">
        <route edges="E32 E33 E34"/>
    </vehicle>
    <vehicle id="201" type="passenger" depart="201.00" departLane="best" departEdge="random">
        <route edges="E39 E40 E35 E32 E33 E34"/>
    </vehicle>
    <vehicle id="202" type="passenger" depart="202.00" departLane="best" departEdge="random">
        <route edges="E39 E40 E35 E32 E33 E36"/>
    </vehicle>
    <vehicle id="203" type="passenger" depart="203.00" departLane="best" departEdge="random">
        <route edges="E33 E36 E37"/>
    </vehicle>
    <vehicle id="206" type="passenger" depart="206.00" departLane="best" departEdge="random">
        <route edges="E35 E32 E33 E36 E37"/>
    </vehicle>
    <vehicle id="208" type="passenger" depart="208.00" departLane="best" departEdge="random">
        <route edges="E33 E34 E35 E32"/>
    </vehicle>
    <vehicle id="210" type="passenger" depart="210.00" departLane="best" departEdge="random">
        <route edges="E39 E40 E35 E32 E33 E34"/>
    </vehicle>
    <vehicle id="211" type="passenger" depart="211.00" departLane="best" departEdge="random">
        <route edges="E32 E33 E34"/>
    </vehicle>
    <vehicle id="220" type="passenger" depart="220.00" departLane="best" departEdge="random">
        <route edges="E39 E40 E35"/>
    </vehicle>
    <vehicle id="221" type="passenger" depart="221.00" departLane="best" departEdge="random">
        <route edges="E40 E35"/>
    </vehicle>
    <vehicle id="222" type="passenger" depart="222.00" departLane="best" departEdge="random">
        <route edges="E40 E35"/>
    </vehicle>
    <vehicle id="223" type="passenger" depart="223.00" departLane="best" departEdge="random">
        <route edges="E39 E40 E35 E32 E33 E36"/>
    </vehicle>
    <vehicle id="226" type="passenger" depart="226.00" departLane="best" departEdge="random">
        <route edges="E39 E41"/>
    </vehicle>
    <vehicle id="228" type="passenger" depart="228.00" departLane="best" departEdge="random">
        <route edges="E35 E32 E33 E36"/>
    </vehicle>
    <vehicle id="232" type="passenger" depart="232.00" departLane="best" departEdge="random">
        <route edges="E41"/>
    </vehicle>
    <vehicle id="233" type="passenger" depart="233.00" departLane="best" departEdge="random">
        <route edges="E41"/>
    </vehicle>
    <vehicle id="236" type="passenger" depart="236.00" departLane="best" departEdge="random">
        <route edges="E40 E35"/>
    </vehicle>
    <vehicle id="239" type="passenger" depart="239.00" departLane="best" departEdge="random">
        <route edges="E38 E35 E32 E33 E36 E37"/>
    </vehicle>
    <vehicle id="241" type="passenger" depart="241.00" departLane="best" departEdge="random">
        <route edges="E32 E33 E36"/>
    </vehicle>
    <vehicle id="242" type="passenger" depart="242.00" departLane="best" departEdge="random">
        <route edges="E36 E37"/>
    </vehicle>
    <vehicle id="243" type="passenger" depart="243.00" departLane="best" departEdge="random">
        <route edges="E34 E35 E32 E33 E36 E37"/>
    </vehicle>
    <vehicle id="245" type="passenger" depart="245.00" departLane="best" departEdge="random">
        <route edges="E34"/>
    </vehicle>
    <vehicle id="246" type="passenger" depart="246.00" departLane="best" departEdge="random">
        <route edges="E35 E32 E33"/>
    </vehicle>
    <vehicle id="248" type="passenger" depart="248.00" departLane="best" departEdge="random">
        <route edges="E35 E32 E33 E36"/>
    </vehicle>
    <vehicle id="249" type="passenger" depart="249.00" departLane="best" departEdge="random">
        <route edges="E35 E32 E33"/>
    </vehicle>
    <vehicle id="250" type="passenger" depart="250.00" departLane="best" departEdge="random">
        <route edges="E39 E40 E35 E32 E33 E34"/>
    </vehicle>
    <vehicle id="251" type="passenger" depart="251.00" departLane="best" departEdge="random">
        <route edges="E32 E33"/>
    </vehicle>
    <vehicle id="252" type="passenger" depart="252.00" departLane="best" departEdge="random">
        <route edges="E39 E41"/>
    </vehicle>
    <vehicle id="255" type="passenger" depart="255.00" departLane="best" departEdge="random">
        <route edges="E40 E35 E32 E33 E34"/>
    </vehicle>
    <vehicle id="257" type="passenger" depart="257.00" departLane="best" departEdge="random">
        <route edges="E34 E35 E32 E33 E36 E37"/>
    </vehicle>
    <vehicle id="258" type="passenger" depart="258.00" departLane="best" departEdge="random">
        <route edges="E34"/>
    </vehicle>
    <vehicle id="259" type="passenger" depart="259.00" departLane="best" departEdge="random">
        <route edges="E33 E34"/>
    </vehicle>
    <vehicle id="260" type="passenger" depart="260.00" departLane="best" departEdge="random">
        <route edges="E32 E33 E36 E37"/>
    </vehicle>
    <vehicle id="261" type="passenger" depart="261.00" departLane="best" departEdge="random">
        <route edges="E39 E40 E35"/>
    </vehicle>
    <vehicle id="262" type="passenger" depart="262.00" departLane="best" departEdge="random">
        <route edges="E38 E35 E32 E33 E36"/>
    </vehicle>
    <vehicle id="263" type="passenger" depart="263.00" departLane="best" departEdge="random">
        <route edges="E32 E33 E34 E35"/>
    </vehicle>
    <vehicle id="264" type="passenger" depart="264.00" departLane="best" departEdge="random">
        <route edges="E32 E33 E36 E37"/>
    </vehicle>
    <vehicle id="265" type="passenger" depart="265.00" departLane="best" departEdge="random">
        <route edges="E33 E34 E35"/>
    </vehicle>
    <vehicle id="266" type="passenger" depart="266.00" departLane="best" departEdge="random">
        <route edges="E33"/>
    </vehicle>
    <vehicle id="267" type="passenger" depart="267.00" departLane="best" departEdge="random">
        <route edges="E41"/>
    </vehicle>
    <vehicle id="268" type="passenger" depart="268.00" departLane="best" departEdge="random">
        <route edges="E32"/>
    </vehicle>
    <vehicle id="269" type="passenger" depart="269.00" departLane="best" departEdge="random">
        <route edges="E32 E33"/>
    </vehicle>
    <vehicle id="270" type="passenger" depart="270.00" departLane="best" departEdge="random">
        <route edges="E39 E41 E37"/>
    </vehicle>
    <vehicle id="271" type="passenger" depart="271.00" departLane="best" departEdge="random">
        <route edges="E40 E35 E32 E33 E36 E37"/>
    </vehicle>
    <vehicle id="272" type="passenger" depart="272.00" departLane="best" departEdge="random">
        <route edges="E40 E35 E32 E33 E36 E37"/>
    </vehicle>
    <vehicle id="273" type="passenger" depart="273.00" departLane="best" departEdge="random">
        <route edges="E35 E32 E33 E36 E37"/>
    </vehicle>
    <vehicle id="275" type="passenger" depart="275.00" departLane="best" departEdge="random">
        <route edges="E35 E32 E33 E36"/>
    </vehicle>
    <vehicle id="276" type="passenger" depart="276.00" departLane="best" departEdge="random">
        <route edges="E32 E33 E34"/>
    </vehicle>
    <vehicle id="277" type="passenger" depart="277.00" departLane="best" departEdge="random">
        <route edges="E33 E36"/>
    </vehicle>
    <vehicle id="278" type="passenger" depart="278.00" departLane="best" departEdge="random">
        <route edges="E33 E34 E35 E32"/>
    </vehicle>
    <vehicle id="279" type="passenger" depart="279.00" departLane="best" departEdge="random">
        <route edges="E35 E32"/>
    </vehicle>
    <vehicle id="282" type="passenger" depart="282.00" departLane="best" departEdge="random">
        <route edges="E41 E37"/>
    </vehicle>
    <vehicle id="283" type="passenger" depart="283.00" departLane="best" departEdge="random">
        <route edges="E33 E36"/>
    </vehicle>
    <vehicle id="284" type="passenger" depart="284.00" departLane="best" departEdge="random">
        <route edges="E40 E35 E32 E33 E36"/>
    </vehicle>