<?xml version="1.0" encoding="UTF-8"?>

<!-- generated on 2022-10-12 19:21:12 by Eclipse SUMO netedit Version 1.14.1
<configuration xmlns:xsi="http://www.w3.org/2001/XMLSchema-instance" xsi:noNamespaceSchemaLocation="http://sumo.dlr.de/xsd/netconvertConfiguration.xsd">

    <input>
        <sumo-net-file value="network1_3.net.xml"/>
    </input>

    <output>
        <output-file value="network1_3.net.xml"/>
    </output>

    <processing>
        <geometry.min-radius.fix.railways value="false"/>
        <geometry.max-grade.fix value="false"/>
        <offset.disable-normalization value="true"/>
        <lefthand value="false"/>
    </processing>

    <junctions>
        <no-turnarounds value="true"/>
        <junctions.corner-detail value="5"/>
        <junctions.limit-turn-speed value="5.5"/>
        <rectangular-lane-cut value="false"/>
    </junctions>

    <pedestrian>
        <walkingareas value="false"/>
    </pedestrian>

</configuration>
-->

<net version="1.9" junctionCornerDetail="5" limitTurnSpeed="5.50" xmlns:xsi="http://www.w3.org/2001/XMLSchema-instance" xsi:noNamespaceSchemaLocation="http://sumo.dlr.de/xsd/net_file.xsd">

    <location netOffset="0.00,0.00" convBoundary="2.26,50.69,110.63,93.13" origBoundary="-10000000000.00,-10000000000.00,10000000000.00,10000000000.00" projParameter="!"/>

    <edge id=":J24_0" function="internal">
        <lane id=":J24_0_0" index="0" speed="3.90" length="2.58" shape="7.06,86.73 7.16,87.43 7.46,87.93 7.96,88.23 8.66,88.33"/>
        <lane id=":J24_0_1" index="1" speed="6.08" length="7.74" shape="3.86,86.73 4.16,88.83 5.06,90.33 6.56,91.23 8.66,91.53"/>
    </edge>
    <edge id=":J25_0" function="internal">
        <lane id=":J25_0_0" index="0" speed="3.90" length="2.58" shape="71.20,88.33 71.90,88.23 72.40,87.93 72.70,87.43 72.80,86.73"/>
        <lane id=":J25_0_1" index="1" speed="6.08" length="7.74" shape="71.20,91.53 73.30,91.23 74.80,90.33 75.70,88.83 76.00,86.73"/>
    </edge>
    <edge id=":J26_0" function="internal">
        <lane id=":J26_0_0" index="0" speed="6.52" length="9.02" shape="72.80,82.98 72.45,80.54 71.40,78.79 69.65,77.74 67.20,77.38"/>
        <lane id=":J26_0_1" index="1" speed="7.33" length="11.71" shape="72.80,82.98 72.45,79.14 71.40,76.39 69.66,74.74 67.21,74.18"/>
    </edge>
    <edge id=":J26_2" function="internal">
        <lane id=":J26_2_0" index="0" speed="13.89" length="14.32" shape="72.80,82.98 72.85,68.64"/>
        <lane id=":J26_2_1" index="1" speed="13.89" length="14.32" shape="76.00,82.98 76.05,68.67"/>
    </edge>
    <edge id=":J27_0" function="internal">
        <lane id=":J27_0_0" index="0" speed="7.98" length="14.17" shape="18.63,77.15 13.57,77.47 9.95,78.51 7.78,80.25 7.06,82.70"/>
        <lane id=":J27_0_1" index="1" speed="9.22" length="19.25" shape="18.64,73.95 12.17,74.47 7.56,76.10 4.78,78.85 3.86,82.70"/>
    </edge>
    <edge id=":J27_2" function="internal">
        <lane id=":J27_2_0" index="0" speed="11.50" length="17.92" shape="17.26,68.91 12.80,72.05 9.61,75.40 7.70,78.95 7.06,82.70"/>
        <lane id=":J27_2_1" index="1" speed="12.48" length="21.23" shape="15.62,66.16 10.48,69.82 6.80,73.80 4.60,78.10 3.86,82.70"/>
    </edge>
    <edge id=":J27_4" function="internal">
        <lane id=":J27_4_0" index="0" speed="13.89" length="18.34" shape="7.19,64.39 7.06,82.70"/>
        <lane id=":J27_4_1" index="1" speed="13.89" length="18.34" shape="3.99,64.33 3.86,82.70"/>
    </edge>
    <edge id=":J29_0" function="internal">
        <lane id=":J29_0_0" index="0" speed="13.89" length="14.19" shape="67.68,46.70 81.80,46.92"/>
        <lane id=":J29_0_1" index="1" speed="13.89" length="14.19" shape="67.59,49.90 81.85,50.12"/>
    </edge>
    <edge id=":J29_2" function="internal">
        <lane id=":J29_2_0" index="0" speed="8.04" length="3.95" shape="73.00,55.62 73.58,51.86 73.66,51.74"/>
        <lane id=":J29_2_1" index="1" speed="6.55" length="4.14" shape="76.20,55.66 76.57,53.27 77.48,51.80"/>
    </edge>
    <edge id=":J29_4" function="internal">
        <lane id=":J29_4_0" index="0" speed="8.04" length="10.08" shape="73.66,51.74 75.25,49.16 77.99,47.51 81.80,46.92"/>
    </edge>
    <edge id=":J29_5" function="internal">
        <lane id=":J29_5_0" index="0" speed="6.55" length="4.83" shape="77.48,51.80 77.64,51.55 79.40,50.50 81.85,50.12"/>
    </edge>
    <edge id=":J32_0" function="internal">
        <lane id=":J32_0_0" index="0" speed="13.89" length="20.03" shape="34.42,45.89 54.49,46.33"/>
        <lane id=":J32_0_1" index="1" speed="13.89" length="20.03" shape="34.42,49.09 54.40,49.53"/>
    </edge>
    <edge id=":J32_2" function="internal">
        <lane id=":J32_2_0" index="0" speed="6.77" length="17.63" shape="34.42,49.09 40.63,49.58 43.20,51.03 42.14,53.46 37.45,56.86"/>
        <lane id=":J32_2_1" index="1" speed="5.51" length="11.07" shape="34.42,49.09 38.18,49.40 39.67,50.35 38.88,51.92 35.81,54.11"/>
    </edge>

    <edge id="E32" from="J24" to="J25" priority="-1">
        <lane id="E32_0" index="0" speed="13.89" length="62.54" shape="8.66,88.33 71.20,88.33"/>
        <lane id="E32_1" index="1" speed="13.89" length="62.54" shape="8.66,91.53 71.20,91.53"/>
    </edge>
    <edge id="E33" from="J25" to="J26" priority="-1">
        <lane id="E33_0" index="0" speed="13.89" length="3.75" shape="72.80,86.73 72.80,82.98"/>
        <lane id="E33_1" index="1" speed="13.89" length="3.75" shape="76.00,86.73 76.00,82.98"/>
    </edge>
    <edge id="E34" from="J26" to="J27" priority="-1">
        <lane id="E34_0" index="0" speed="13.89" length="48.57" shape="67.20,77.38 18.63,77.15"/>
        <lane id="E34_1" index="1" speed="13.89" length="48.57" shape="67.21,74.18 18.64,73.95"/>
    </edge>
    <edge id="E35" from="J27" to="J24" priority="-1">
        <lane id="E35_0" index="0" speed="13.89" length="4.03" shape="7.06,82.70 7.06,86.73"/>
        <lane id="E35_1" index="1" speed="13.89" length="4.03" shape="3.86,82.70 3.86,86.73"/>
    </edge>
    <edge id="E36" from="J26" to="J29" priority="-1">
        <lane id="E36_0" index="0" speed="13.89" length="13.02" shape="72.85,68.64 73.00,55.62"/>
        <lane id="E36_1" index="1" speed="13.89" length="13.02" shape="76.05,68.67 76.20,55.66"/>
    </edge>
    <edge id="E37" from="J29" to="J30" priority="-1">
        <lane id="E37_0" index="0" speed="13.89" length="28.76" shape="81.80,46.92 110.56,46.50"/>
        <lane id="E37_1" index="1" speed="13.89" length="28.76" shape="81.85,50.12 110.61,49.70"/>
    </edge>
    <edge id="E38" from="J31" to="J27" priority="-1">
        <lane id="E38_0" index="0" speed="13.89" length="12.22" shape="7.40,52.16 7.19,64.39"/>
        <lane id="E38_1" index="1" speed="13.89" length="12.22" shape="4.20,52.11 3.99,64.33"/>
    </edge>
    <edge id="E39" from="J31" to="J32" priority="-1">
        <lane id="E39_0" index="0" speed="13.89" length="23.90" shape="10.52,45.89 34.42,45.89"/>
        <lane id="E39_1" index="1" speed="13.89" length="23.90" shape="10.52,49.09 34.42,49.09"/>
    </edge>
    <edge id="E40" from="J32" to="J27" priority="-1">
        <lane id="E40_0" index="0" speed="13.89" length="23.50" shape="37.45,56.86 17.26,68.91"/>
        <lane id="E40_1" index="1" speed="13.89" length="23.50" shape="35.81,54.11 15.62,66.16"/>
    </edge>
    <edge id="E41" from="J32" to="J29" priority="-1">
        <lane id="E41_0" index="0" speed="13.89" length="13.20" shape="54.49,46.33 67.68,46.70"/>
        <lane id="E41_1" index="1" speed="13.89" length="13.20" shape="54.40,49.53 67.59,49.90"/>
    </edge>

    <junction id="J24" type="priority" x="2.26" y="93.13" incLanes="E35_0 E35_1" intLanes=":J24_0_0 :J24_0_1" shape="8.66,93.13 8.66,86.73 2.26,86.73 2.97,90.29 3.86,91.53 5.10,92.42 6.70,92.95">
        <request index="0" response="00" foes="00" cont="0"/>
        <request index="1" response="00" foes="00" cont="0"/>
    </junction>
    <junction id="J25" type="priority" x="77.60" y="93.13" incLanes="E32_0 E32_1" intLanes=":J25_0_0 :J25_0_1" shape="77.60,86.73 71.20,86.73 71.20,93.13 74.76,92.42 76.00,91.53 76.89,90.29 77.42,88.69">
        <request index="0" response="00" foes="00" cont="0"/>
        <request index="1" response="00" foes="00" cont="0"/>
    </junction>
    <junction id="J26" type="priority" x="77.60" y="72.63" incLanes="E33_0 E33_1" intLanes=":J26_0_0 :J26_0_1 :J26_2_0 :J26_2_1" shape="71.20,82.98 77.60,82.98 77.65,68.69 71.25,68.62 70.78,70.83 70.22,71.60 69.44,72.15 68.44,72.48 67.22,72.58 67.19,78.98 69.42,79.43 70.20,79.99 70.75,80.77 71.09,81.76">
        <request index="0" response="0000" foes="0000" cont="0"/>
        <request index="1" response="0000" foes="0000" cont="0"/>
        <request index="2" response="0000" foes="0000" cont="0"/>
        <request index="3" response="0000" foes="0000" cont="0"/>
    </junction>
    <junction id="J27" type="traffic_light" x="2.26" y="72.27" incLanes="E34_0 E34_1 E40_0 E40_1 E38_0 E38_1" intLanes=":J27_0_0 :J27_0_1 :J27_2_0 :J27_2_1 :J27_4_0 :J27_4_1" shape="2.26,82.70 8.66,82.70 9.77,80.48 11.15,79.71 13.09,79.17 15.58,78.84 18.62,78.75 18.65,72.35 18.08,70.28 14.80,64.78 12.95,65.78 11.43,66.35 10.26,66.50 9.43,66.23 8.94,65.53 8.79,64.41 2.39,64.31">
        <request index="0" response="000000" foes="111100" cont="0"/>
        <request index="1" response="000000" foes="111100" cont="0"/>
        <request index="2" response="110011" foes="110011" cont="0"/>
        <request index="3" response="110011" foes="110011" cont="0"/>
        <request index="4" response="000011" foes="001111" cont="0"/>
        <request index="5" response="000011" foes="001111" cont="0"/>
    </junction>
    <junction id="J29" type="priority" x="77.84" y="51.78" incLanes="E41_0 E41_1 E36_0 E36_1" intLanes=":J29_0_0 :J29_0_1 :J29_4_0 :J29_5_0" shape="81.87,51.72 81.78,45.32 67.72,45.10 67.55,51.50 69.71,52.00 70.46,52.58 70.99,53.37 71.30,54.38 71.40,55.60 77.80,55.68 78.27,53.51 78.84,52.74 79.63,52.19 80.64,51.85">
        <request index="0" response="0000" foes="1100" cont="0"/>
        <request index="1" response="0000" foes="1100" cont="0"/>
        <request index="2" response="0011" foes="0011" cont="1"/>
        <request index="3" response="0011" foes="0011" cont="1"/>
    </junction>
    <junction id="J30" type="dead_end" x="110.63" y="51.30" incLanes="E37_0 E37_1" intLanes="" shape="110.54,44.90 110.63,51.30"/>
    <junction id="J31" type="dead_end" x="2.62" y="50.69" incLanes="" intLanes="" shape="10.52,50.69 10.52,44.29 8.14,44.51 6.18,45.16 4.64,46.24 3.53,47.75 2.85,49.70 2.60,52.08 9.00,52.19 9.18,51.36 9.39,51.06 9.68,50.86 10.06,50.73"/>
    <junction id="J32" type="priority" x="38.42" y="50.69" incLanes="E39_0 E39_1" intLanes=":J32_0_0 :J32_0_1 :J32_2_0 :J32_2_1" shape="54.35,51.13 54.53,44.73 34.42,44.29 34.42,50.69 34.99,52.74 38.26,58.24 41.47,56.13 43.84,54.34 45.84,52.90 47.95,51.86 50.63,51.26">
        <request index="0" response="0000" foes="0000" cont="0"/>
        <request index="1" response="0000" foes="0000" cont="0"/>
        <request index="2" response="0000" foes="0000" cont="0"/>
        <request index="3" response="0000" foes="0000" cont="0"/>
    </junction>

    <junction id=":J29_4_0" type="internal" x="73.66" y="51.74" incLanes=":J29_2_0 E41_0 E41_1" intLanes=":J29_0_0 :J29_0_1"/>
    <junction id=":J29_5_0" type="internal" x="77.48" y="51.80" incLanes=":J29_2_1 E41_0 E41_1" intLanes=":J29_0_0 :J29_0_1"/>

    <connection from="E32" to="E33" fromLane="0" toLane="0" via=":J25_0_0" dir="r" state="M"/>
    <connection from="E32" to="E33" fromLane="1" toLane="1" via=":J25_0_1" dir="r" state="M"/>
    <connection from="E33" to="E34" fromLane="0" toLane="0" via=":J26_0_0" dir="r" state="M"/>
    <connection from="E33" to="E34" fromLane="0" toLane="1" via=":J26_0_1" dir="r" state="M"/>
    <connection from="E33" to="E36" fromLane="0" toLane="0" via=":J26_2_0" dir="s" state="M"/>
    <connection from="E33" to="E36" fromLane="1" toLane="1" via=":J26_2_1" dir="s" state="M"/>
    <connection from="E34" to="E35" fromLane="0" toLane="0" uncontrolled="1" via=":J27_0_0" dir="r" state="M"/>
    <connection from="E34" to="E35" fromLane="1" toLane="1" uncontrolled="1" via=":J27_0_1" dir="r" state="M"/>
    <connection from="E35" to="E32" fromLane="0" toLane="0" via=":J24_0_0" dir="r" state="M"/>
    <connection from="E35" to="E32" fromLane="1" toLane="1" via=":J24_0_1" dir="r" state="M"/>
    <connection from="E36" to="E37" fromLane="0" toLane="0" via=":J29_2_0" dir="l" state="m"/>
    <connection from="E36" to="E37" fromLane="1" toLane="1" via=":J29_2_1" dir="l" state="m"/>
    <connection from="E38" to="E35" fromLane="0" toLane="0" uncontrolled="1" via=":J27_4_0" dir="s" state="m"/>
    <connection from="E38" to="E35" fromLane="1" toLane="1" uncontrolled="1" via=":J27_4_1" dir="s" state="m"/>
    <connection from="E39" to="E41" fromLane="0" toLane="0" via=":J32_0_0" dir="s" state="M"/>
    <connection from="E39" to="E41" fromLane="1" toLane="1" via=":J32_0_1" dir="s" state="M"/>
    <connection from="E39" to="E40" fromLane="1" toLane="0" via=":J32_2_0" dir="l" state="M"/>
    <connection from="E39" to="E40" fromLane="1" toLane="1" via=":J32_2_1" dir="l" state="M"/>
    <connection from="E40" to="E35" fromLane="0" toLane="0" uncontrolled="1" via=":J27_2_0" dir="r" state="m"/>
    <connection from="E40" to="E35" fromLane="1" toLane="1" uncontrolled="1" via=":J27_2_1" dir="r" state="m"/>
    <connection from="E41" to="E37" fromLane="0" toLane="0" via=":J29_0_0" dir="s" state="M"/>
    <connection from="E41" to="E37" fromLane="1" toLane="1" via=":J29_0_1" dir="s" state="M"/>

    <connection from=":J24_0" to="E32" fromLane="0" toLane="0" dir="r" state="M"/>
    <connection from=":J24_0" to="E32" fromLane="1" toLane="1" dir="r" state="M"/>
    <connection from=":J25_0" to="E33" fromLane="0" toLane="0" dir="r" state="M"/>
    <connection from=":J25_0" to="E33" fromLane="1" toLane="1" dir="r" state="M"/>
    <connection from=":J26_0" to="E34" fromLane="0" toLane="0" dir="r" state="M"/>
    <connection from=":J26_0" to="E34" fromLane="1" toLane="1" dir="r" state="M"/>
    <connection from=":J26_2" to="E36" fromLane="0" toLane="0" dir="s" state="M"/>
    <connection from=":J26_2" to="E36" fromLane="1" toLane="1" dir="s" state="M"/>
    <connection from=":J27_0" to="E35" fromLane="0" toLane="0" dir="r" state="M"/>
    <connection from=":J27_0" to="E35" fromLane="1" toLane="1" dir="r" state="M"/>
    <connection from=":J27_2" to="E35" fromLane="0" toLane="0" dir="r" state="M"/>
    <connection from=":J27_2" to="E35" fromLane="1" toLane="1" dir="r" state="M"/>
    <connection from=":J27_4" to="E35" fromLane="0" toLane="0" dir="s" state="M"/>
    <connection from=":J27_4" to="E35" fromLane="1" toLane="1" dir="s" state="M"/>
    <connection from=":J29_0" to="E37" fromLane="0" toLane="0" dir="s" state="M"/>
    <connection from=":J29_0" to="E37" fromLane="1" toLane="1" dir="s" state="M"/>
    <connection from=":J29_2" to="E37" fromLane="0" toLane="0" via=":J29_4_0" dir="l" state="m"/>
    <connection from=":J29_4" to="E37" fromLane="0" toLane="0" dir="l" state="M"/>
    <connection from=":J29_2" to="E37" fromLane="1" toLane="1" via=":J29_5_0" dir="l" state="m"/>
    <connection from=":J29_5" to="E37" fromLane="0" toLane="1" dir="l" state="M"/>
    <connection from=":J32_0" to="E41" fromLane="0" toLane="0" dir="s" state="M"/>
    <connection from=":J32_0" to="E41" fromLane="1" toLane="1" dir="s" state="M"/>
    <connection from=":J32_2" to="E40" fromLane="0" toLane="0" dir="l" state="M"/>
    <connection from=":J32_2" to="E40" fromLane="1" toLane="1" dir="l" state="M"/>

</net>
