<?xml version="1.0" encoding="UTF-8"?>

<routes xmlns:xsi="http://www.w3.org/2001/XMLSchema-instance" xsi:noNamespaceSchemaLocation="http://sumo.dlr.de/xsd/routes_file.xsd">
    <vType id="auto" length="5" maxSpeed="50" accel="2.6" decel="4.5" sigma="0.2" speedDev="0.2" vClass="passenger"/>
    <vType id="bus" length="15" maxSpeed="30" accel="1.2" decel="2.5" sigma="0.1" speedDev="0.1" vClass="bus"/>
    <vType id="tram" length="40" maxSpeed="13" accel="0.8" decel="0.5" sigma="0.1" speedDev="0.1" vClass="rail_urban"/>
    <vType id="bike" length="1.8" width="0.8" maxSpeed="7.5" accel="0.8" decel="1.5" sigma="0.5" speedDev="0.5" vClass="bicycle"/>
    <!--<vType id="ped" length="0.5" width="0.5" maxSpeed="2" accel="0.4" decel="0.2" sigma="0.5" speedDev="0.5" vClass="pedestrian" color="blue"/>-->



    <flow id="car_flow" type="auto" from="E0" to="E0.0" begin="0" end="0" number="66" departPos="last"/>
    <flow id="bus_flow" type="bus" from="E0" to="E0.0" begin="0" end="0" number="5" departPos="last"/>
    <flow id="tram_flow" type="tram" from="E0" to="E0.0" begin="0" end="0" number="2" departPos="last"/>
    <flow id="bike_flow" type="bike" from="E0" to="E0.0" begin="0" end="0" number="100" departPos="last"/>
    <!--<flow id="ped_flow" type="ped" from="E0" to="E0.0" begin="0" end="0" number="100" departPos="last"/>-->
    
</routes>