<?xml version="1.0" encoding="UTF-8"?>

<!-- generated on 2022-09-29 15:02:40 by Eclipse SUMO netedit Version 1.14.1
<configuration xmlns:xsi="http://www.w3.org/2001/XMLSchema-instance" xsi:noNamespaceSchemaLocation="http://sumo.dlr.de/xsd/netconvertConfiguration.xsd">

    <output>
        <output-file value="C:\Users\Giuseppe\Desktop\Sumo%20Tutorials\Tutorial%204%20-%20Special%20Lane\network1_3.net.xml"/>
    </output>

    <processing>
        <offset.disable-normalization value="true"/>
    </processing>

    <junctions>
        <no-turnarounds value="true"/>
    </junctions>

</configuration>
-->

<net version="1.9" junctionCornerDetail="5" limitTurnSpeed="5.50" xmlns:xsi="http://www.w3.org/2001/XMLSchema-instance" xsi:noNamespaceSchemaLocation="http://sumo.dlr.de/xsd/net_file.xsd">

    <location netOffset="0.00,0.00" convBoundary="0.00,0.00,1000.00,0.00" origBoundary="10000000000.00,10000000000.00,-10000000000.00,-10000000000.00" projParameter="!"/>

    <edge id=":J2_0" function="internal">
        <lane id=":J2_0_0" index="0" allow="bus" speed="13.89" length="0.10" shape="900.00,-11.00 900.00,-11.00"/>
        <lane id=":J2_0_1" index="1" allow="pedestrian" speed="13.89" length="0.10" width="2.00" shape="900.00,-8.40 900.00,-8.40"/>
        <lane id=":J2_0_2" index="2" allow="bicycle" speed="13.89" length="0.10" width="1.00" shape="900.00,-6.90 900.00,-6.90"/>
        <lane id=":J2_0_3" index="3" allow="passenger" speed="13.89" length="0.10" shape="900.00,-4.80 900.00,-4.80"/>
        <lane id=":J2_0_4" index="4" allow="rail_urban" speed="13.89" length="0.10" shape="900.00,-1.60 900.00,-1.60"/>
    </edge>

    <edge id="E0" from="J0" to="J2" priority="-1" spreadType="roadCenter">
        <lane id="E0_0" index="0" allow="bus" speed="13.89" length="900.00" shape="0.00,-11.00 900.00,-11.00"/>
        <lane id="E0_1" index="1" allow="pedestrian" speed="13.89" length="900.00" width="2.00" shape="0.00,-8.40 900.00,-8.40"/>
        <lane id="E0_2" index="2" allow="bicycle" speed="13.89" length="900.00" width="1.00" shape="0.00,-6.90 900.00,-6.90"/>
        <lane id="E0_3" index="3" allow="passenger" speed="13.89" length="900.00" shape="0.00,-4.80 900.00,-4.80"/>
        <lane id="E0_4" index="4" allow="rail_urban" speed="13.89" length="900.00" shape="0.00,-1.60 900.00,-1.60"/>
    </edge>
    <edge id="E0.0" from="J2" to="J1" priority="-1">
        <lane id="E0.0_0" index="0" allow="bus" speed="13.89" length="100.00" shape="900.00,-11.00 1000.00,-11.00"/>
        <lane id="E0.0_1" index="1" allow="pedestrian" speed="13.89" length="100.00" width="2.00" shape="900.00,-8.40 1000.00,-8.40"/>
        <lane id="E0.0_2" index="2" allow="bicycle" speed="13.89" length="100.00" width="1.00" shape="900.00,-6.90 1000.00,-6.90"/>
        <lane id="E0.0_3" index="3" allow="passenger" speed="13.89" length="100.00" shape="900.00,-4.80 1000.00,-4.80"/>
        <lane id="E0.0_4" index="4" allow="rail_urban" speed="13.89" length="100.00" shape="900.00,-1.60 1000.00,-1.60"/>
    </edge>

    <tlLogic id="J2" type="static" programID="0" offset="0">
        <phase duration="82" state="GGGGG"/>
        <phase duration="3"  state="yyyyy"/>
        <phase duration="5"  state="rrrrr"/>
    </tlLogic>

    <junction id="J0" type="dead_end" x="0.00" y="0.00" incLanes="" intLanes="" shape="0.00,0.00 0.00,-12.60" fringe="outer"/>
    <junction id="J1" type="dead_end" x="1000.00" y="0.00" incLanes="E0.0_0 E0.0_1 E0.0_2 E0.0_3 E0.0_4" intLanes="" shape="1000.00,-12.60 1000.00,0.00"/>
    <junction id="J2" type="traffic_light" x="900.00" y="0.00" incLanes="E0_0 E0_1 E0_2 E0_3 E0_4" intLanes=":J2_0_0 :J2_0_1 :J2_0_2 :J2_0_3 :J2_0_4" shape="900.00,0.00 900.00,-12.60 900.00,0.00">
        <request index="0" response="00000" foes="00000" cont="0"/>
        <request index="1" response="00000" foes="00000" cont="0"/>
        <request index="2" response="00000" foes="00000" cont="0"/>
        <request index="3" response="00000" foes="00000" cont="0"/>
        <request index="4" response="00000" foes="00000" cont="0"/>
    </junction>

    <connection from="E0" to="E0.0" fromLane="0" toLane="0" via=":J2_0_0" tl="J2" linkIndex="0" dir="s" state="O"/>
    <connection from="E0" to="E0.0" fromLane="1" toLane="1" via=":J2_0_1" tl="J2" linkIndex="1" dir="s" state="O"/>
    <connection from="E0" to="E0.0" fromLane="2" toLane="2" via=":J2_0_2" tl="J2" linkIndex="2" dir="s" state="O"/>
    <connection from="E0" to="E0.0" fromLane="3" toLane="3" via=":J2_0_3" tl="J2" linkIndex="3" dir="s" state="O"/>
    <connection from="E0" to="E0.0" fromLane="4" toLane="4" via=":J2_0_4" tl="J2" linkIndex="4" dir="s" state="O"/>

    <connection from=":J2_0" to="E0.0" fromLane="0" toLane="0" dir="s" state="M"/>
    <connection from=":J2_0" to="E0.0" fromLane="1" toLane="1" dir="s" state="M"/>
    <connection from=":J2_0" to="E0.0" fromLane="2" toLane="2" dir="s" state="M"/>
    <connection from=":J2_0" to="E0.0" fromLane="3" toLane="3" dir="s" state="M"/>
    <connection from=":J2_0" to="E0.0" fromLane="4" toLane="4" dir="s" state="M"/>

</net>
