<?xml version="1.0" encoding="UTF-8"?>

<!-- generated on 2022-10-24 15:12:04 by Eclipse SUMO netedit Version 1.14.1
<configuration xmlns:xsi="http://www.w3.org/2001/XMLSchema-instance" xsi:noNamespaceSchemaLocation="http://sumo.dlr.de/xsd/netconvertConfiguration.xsd">

    <input>
        <sumo-net-file value="network1_3.net.xml"/>
    </input>

    <output>
        <output-file value="network1_3.net.xml"/>
    </output>

    <processing>
        <geometry.min-radius.fix.railways value="false"/>
        <geometry.max-grade.fix value="false"/>
        <offset.disable-normalization value="true"/>
        <lefthand value="false"/>
    </processing>

    <junctions>
        <no-turnarounds value="true"/>
        <junctions.corner-detail value="5"/>
        <junctions.limit-turn-speed value="5.5"/>
        <rectangular-lane-cut value="false"/>
    </junctions>

    <pedestrian>
        <walkingareas value="false"/>
    </pedestrian>

</configuration>
-->

<net version="1.9" junctionCornerDetail="5" limitTurnSpeed="5.50" xmlns:xsi="http://www.w3.org/2001/XMLSchema-instance" xsi:noNamespaceSchemaLocation="http://sumo.dlr.de/xsd/net_file.xsd">

    <location netOffset="0.00,0.00" convBoundary="-31.27,-17.84,96.05,85.23" origBoundary="-10000000000.00,-10000000000.00,10000000000.00,10000000000.00" projParameter="!"/>

    <edge id=":J0_0" function="internal">
        <lane id=":J0_0_0" index="0" speed="6.08" length="7.83" shape="-28.02,86.64 -30.15,86.33 -31.66,85.41 -32.54,83.88 -32.81,81.75"/>
    </edge>
    <edge id=":J0_1" function="internal">
        <lane id=":J0_1_0" index="0" speed="3.90" length="2.61" shape="-29.61,81.81 -29.52,82.52 -29.22,83.03 -28.72,83.34 -28.01,83.44"/>
    </edge>
    <edge id=":J1_0" function="internal">
        <lane id=":J1_0_0" index="0" speed="13.89" length="14.42" shape="32.78,86.82 18.36,86.80"/>
    </edge>
    <edge id=":J1_1" function="internal">
        <lane id=":J1_1_0" index="0" speed="7.95" length="4.11" shape="32.78,86.82 28.89,86.27 28.74,86.18"/>
    </edge>
    <edge id=":J1_6" function="internal">
        <lane id=":J1_6_0" index="0" speed="7.95" length="10.19" shape="28.74,86.18 26.14,84.60 24.54,81.81 24.09,77.90"/>
    </edge>
    <edge id=":J1_2" function="internal">
        <lane id=":J1_2_0" index="0" speed="6.45" length="9.03" shape="27.29,77.99 27.57,80.45 28.58,82.22 30.32,83.27 32.78,83.62"/>
    </edge>
    <edge id=":J1_3" function="internal">
        <lane id=":J1_3_0" index="0" speed="8.08" length="14.24" shape="27.29,77.99 26.64,81.86 24.93,84.62 22.17,86.27 18.36,86.80"/>
    </edge>
    <edge id=":J1_4" function="internal">
        <lane id=":J1_4_0" index="0" speed="6.60" length="9.16" shape="18.37,83.60 20.81,83.26 22.58,82.19 23.67,80.40 24.09,77.90"/>
    </edge>
    <edge id=":J1_5" function="internal">
        <lane id=":J1_5_0" index="0" speed="13.89" length="14.41" shape="18.37,83.60 32.78,83.62"/>
    </edge>
    <edge id=":J10_0" function="internal">
        <lane id=":J10_0_0" index="0" speed="6.68" length="9.25" shape="35.88,-15.65 33.44,-15.31 31.66,-14.24 30.53,-12.43 30.05,-9.90"/>
    </edge>
    <edge id=":J10_1" function="internal">
        <lane id=":J10_1_0" index="0" speed="13.89" length="14.40" shape="35.88,-15.65 21.48,-15.78"/>
    </edge>
    <edge id=":J10_2" function="internal">
        <lane id=":J10_2_0" index="0" speed="13.89" length="14.40" shape="21.51,-18.98 35.91,-18.85"/>
    </edge>
    <edge id=":J10_3" function="internal">
        <lane id=":J10_3_0" index="0" speed="7.93" length="4.10" shape="21.51,-18.98 25.42,-18.38 25.54,-18.30"/>
    </edge>
    <edge id=":J10_6" function="internal">
        <lane id=":J10_6_0" index="0" speed="7.93" length="10.26" shape="25.54,-18.30 28.15,-16.67 29.69,-13.84 30.05,-9.90"/>
    </edge>
    <edge id=":J10_4" function="internal">
        <lane id=":J10_4_0" index="0" speed="6.42" length="9.04" shape="26.86,-10.06 26.63,-12.54 25.66,-14.32 23.94,-15.40 21.48,-15.78"/>
    </edge>
    <edge id=":J10_5" function="internal">
        <lane id=":J10_5_0" index="0" speed="8.14" length="14.25" shape="26.86,-10.06 27.59,-13.93 29.35,-16.69 32.12,-18.33 35.91,-18.85"/>
    </edge>
    <edge id=":J11_0" function="internal">
        <lane id=":J11_0_0" index="0" speed="6.07" length="8.03" shape="92.69,-18.40 94.89,-18.06 96.41,-17.11 97.26,-15.52 97.45,-13.31"/>
    </edge>
    <edge id=":J11_1" function="internal">
        <lane id=":J11_1_0" index="0" speed="3.90" length="2.68" shape="94.25,-13.50 94.19,-14.24 93.91,-14.77 93.40,-15.09 92.67,-15.20"/>
    </edge>
    <edge id=":J2_0" function="internal">
        <lane id=":J2_0_0" index="0" speed="6.08" length="7.51" shape="93.15,82.17 92.77,84.18 91.85,85.62 90.38,86.48 88.35,86.77"/>
    </edge>
    <edge id=":J2_1" function="internal">
        <lane id=":J2_1_0" index="0" speed="3.91" length="2.50" shape="88.35,83.57 89.03,83.48 89.52,83.19 89.82,82.71 89.95,82.04"/>
    </edge>
    <edge id=":J3_0" function="internal">
        <lane id=":J3_0_0" index="0" speed="13.89" length="14.43" shape="94.89,39.05 94.33,53.47"/>
    </edge>
    <edge id=":J3_1" function="internal">
        <lane id=":J3_1_0" index="0" speed="8.16" length="4.01" shape="94.89,39.05 94.20,42.80 94.10,42.96"/>
    </edge>
    <edge id=":J3_6" function="internal">
        <lane id=":J3_6_0" index="0" speed="8.16" length="10.26" shape="94.10,42.96 92.44,45.50 89.60,47.14 85.69,47.71"/>
    </edge>
    <edge id=":J3_2" function="internal">
        <lane id=":J3_2_0" index="0" speed="6.69" length="9.28" shape="85.66,44.51 88.22,44.14 90.09,43.09 91.24,41.35 91.70,38.93"/>
    </edge>
    <edge id=":J3_3" function="internal">
        <lane id=":J3_3_0" index="0" speed="7.91" length="14.39" shape="85.66,44.51 89.59,45.04 92.35,46.71 93.93,49.52 94.33,53.47"/>
    </edge>
    <edge id=":J3_4" function="internal">
        <lane id=":J3_4_0" index="0" speed="6.40" length="9.04" shape="91.14,53.34 90.88,50.85 89.89,49.09 88.16,48.04 85.69,47.71"/>
    </edge>
    <edge id=":J3_5" function="internal">
        <lane id=":J3_5_0" index="0" speed="13.89" length="14.42" shape="91.14,53.34 91.70,38.93"/>
    </edge>
    <edge id=":J4_0" function="internal">
        <lane id=":J4_0_0" index="0" speed="6.70" length="9.35" shape="33.84,48.21 31.32,48.59 29.49,49.68 28.36,51.48 27.93,53.99"/>
    </edge>
    <edge id=":J4_1" function="internal">
        <lane id=":J4_1_0" index="0" speed="13.89" length="14.59" shape="33.84,48.21 19.25,48.24"/>
    </edge>
    <edge id=":J4_2" function="internal">
        <lane id=":J4_2_0" index="0" speed="7.95" length="14.31" shape="33.84,48.21 29.94,47.69 27.18,46.04 25.56,43.26 25.08,39.35"/>
    </edge>
    <edge id=":J4_3" function="internal">
        <lane id=":J4_3_0" index="0" speed="6.44" length="9.03" shape="28.28,39.42 28.58,41.88 29.60,43.64 31.35,44.68 33.81,45.01"/>
    </edge>
    <edge id=":J4_4" function="internal">
        <lane id=":J4_4_0" index="0" speed="13.89" length="14.58" shape="28.28,39.42 27.93,53.99"/>
    </edge>
    <edge id=":J4_5" function="internal">
        <lane id=":J4_5_0" index="0" speed="8.09" length="4.13" shape="28.28,39.42 27.65,43.29 27.54,43.47"/>
    </edge>
    <edge id=":J4_12" function="internal">
        <lane id=":J4_12_0" index="0" speed="8.09" length="10.22" shape="27.54,43.47 25.93,46.06 23.13,47.71 19.25,48.24"/>
    </edge>
    <edge id=":J4_6" function="internal">
        <lane id=":J4_6_0" index="0" speed="6.61" length="9.24" shape="19.27,45.04 21.77,44.70 23.57,43.63 24.67,41.85 25.08,39.35"/>
    </edge>
    <edge id=":J4_7" function="internal">
        <lane id=":J4_7_0" index="0" speed="13.89" length="14.54" shape="19.27,45.04 33.81,45.01"/>
    </edge>
    <edge id=":J4_8" function="internal">
        <lane id=":J4_8_0" index="0" speed="7.96" length="14.27" shape="19.27,45.04 23.15,45.62 25.89,47.30 27.48,50.09 27.93,53.99"/>
    </edge>
    <edge id=":J4_9" function="internal">
        <lane id=":J4_9_0" index="0" speed="6.46" length="9.03" shape="24.73,53.90 24.45,51.44 23.44,49.67 21.71,48.61 19.25,48.24"/>
    </edge>
    <edge id=":J4_10" function="internal">
        <lane id=":J4_10_0" index="0" speed="13.89" length="14.56" shape="24.73,53.90 25.08,39.35"/>
    </edge>
    <edge id=":J4_11" function="internal">
        <lane id=":J4_11_0" index="0" speed="8.16" length="4.07" shape="24.73,53.90 25.39,50.04 25.47,49.91"/>
    </edge>
    <edge id=":J4_13" function="internal">
        <lane id=":J4_13_0" index="0" speed="8.16" length="10.31" shape="25.47,49.91 27.12,47.28 29.93,45.60 33.81,45.01"/>
    </edge>
    <edge id=":J5_0" function="internal">
        <lane id=":J5_0_0" index="0" speed="6.55" length="9.08" shape="-23.32,48.00 -25.79,48.34 -27.57,49.37 -28.66,51.11 -29.06,53.55"/>
    </edge>
    <edge id=":J5_1" function="internal">
        <lane id=":J5_1_0" index="0" speed="7.99" length="14.21" shape="-23.32,48.00 -27.17,47.43 -29.91,45.76 -31.54,42.99 -32.05,39.13"/>
    </edge>
    <edge id=":J5_2" function="internal">
        <lane id=":J5_2_0" index="0" speed="6.50" length="9.03" shape="-28.85,39.16 -28.52,41.62 -27.49,43.38 -25.75,44.44 -23.30,44.80"/>
    </edge>
    <edge id=":J5_3" function="internal">
        <lane id=":J5_3_0" index="0" speed="13.89" length="14.38" shape="-28.85,39.16 -29.06,53.55"/>
    </edge>
    <edge id=":J5_4" function="internal">
        <lane id=":J5_4_0" index="0" speed="13.89" length="14.35" shape="-32.26,53.48 -32.05,39.13"/>
    </edge>
    <edge id=":J5_5" function="internal">
        <lane id=":J5_5_0" index="0" speed="8.04" length="4.01" shape="-32.26,53.48 -31.63,49.67 -31.56,49.54"/>
    </edge>
    <edge id=":J5_6" function="internal">
        <lane id=":J5_6_0" index="0" speed="8.04" length="10.17" shape="-31.56,49.54 -29.93,46.95 -27.15,45.32 -23.30,44.80"/>
    </edge>
    <edge id=":J6_0" function="internal">
        <lane id=":J6_0_0" index="0" speed="6.56" length="9.12" shape="-22.94,16.19 -25.43,16.54 -27.22,17.59 -28.30,19.33 -28.68,21.77"/>
    </edge>
    <edge id=":J6_1" function="internal">
        <lane id=":J6_1_0" index="0" speed="7.96" length="14.28" shape="-22.94,16.19 -26.82,15.63 -29.57,13.96 -31.18,11.18 -31.65,7.28"/>
    </edge>
    <edge id=":J6_2" function="internal">
        <lane id=":J6_2_0" index="0" speed="6.46" length="9.03" shape="-28.45,7.35 -28.15,9.82 -27.13,11.58 -25.39,12.64 -22.94,12.99"/>
    </edge>
    <edge id=":J6_3" function="internal">
        <lane id=":J6_3_0" index="0" speed="13.89" length="14.42" shape="-28.45,7.35 -28.68,21.77"/>
    </edge>
    <edge id=":J6_4" function="internal">
        <lane id=":J6_4_0" index="0" speed="13.89" length="14.46" shape="-31.88,21.74 -31.65,7.28"/>
    </edge>
    <edge id=":J6_5" function="internal">
        <lane id=":J6_5_0" index="0" speed="8.04" length="4.09" shape="-31.88,21.74 -31.29,17.91 -31.17,17.73"/>
    </edge>
    <edge id=":J6_6" function="internal">
        <lane id=":J6_6_0" index="0" speed="8.04" length="10.15" shape="-31.17,17.73 -29.60,15.18 -26.82,13.54 -22.94,12.99"/>
    </edge>
    <edge id=":J7_0" function="internal">
        <lane id=":J7_0_0" index="0" speed="6.64" length="9.31" shape="34.55,16.20 32.01,16.55 30.18,17.61 29.05,19.39 28.64,21.88"/>
    </edge>
    <edge id=":J7_1" function="internal">
        <lane id=":J7_1_0" index="0" speed="13.89" length="14.62" shape="34.55,16.20 19.92,16.18"/>
    </edge>
    <edge id=":J7_2" function="internal">
        <lane id=":J7_2_0" index="0" speed="7.92" length="4.10" shape="34.55,16.20 30.62,15.62 30.51,15.56"/>
    </edge>
    <edge id=":J7_12" function="internal">
        <lane id=":J7_12_0" index="0" speed="7.92" length="10.28" shape="30.51,15.56 27.88,13.92 26.33,11.10 25.97,7.15"/>
    </edge>
    <edge id=":J7_3" function="internal">
        <lane id=":J7_3_0" index="0" speed="6.40" length="9.04" shape="29.17,7.31 29.39,9.79 30.37,11.57 32.09,12.64 34.55,13.00"/>
    </edge>
    <edge id=":J7_4" function="internal">
        <lane id=":J7_4_0" index="0" speed="13.89" length="14.58" shape="29.17,7.31 28.64,21.88"/>
    </edge>
    <edge id=":J7_5" function="internal">
        <lane id=":J7_5_0" index="0" speed="8.22" length="14.45" shape="29.17,7.31 28.42,11.19 26.63,13.96 23.80,15.63 19.92,16.18"/>
    </edge>
    <edge id=":J7_6" function="internal">
        <lane id=":J7_6_0" index="0" speed="6.77" length="9.48" shape="19.92,12.98 22.46,12.62 24.31,11.52 25.48,9.70 25.97,7.15"/>
    </edge>
    <edge id=":J7_7" function="internal">
        <lane id=":J7_7_0" index="0" speed="13.89" length="14.63" shape="19.92,12.98 34.55,13.00"/>
    </edge>
    <edge id=":J7_8" function="internal">
        <lane id=":J7_8_0" index="0" speed="7.96" length="4.09" shape="19.92,12.98 23.81,13.54 23.95,13.63"/>
    </edge>
    <edge id=":J7_13" function="internal">
        <lane id=":J7_13_0" index="0" speed="7.96" length="10.18" shape="23.95,13.63 26.55,15.20 28.16,17.99 28.64,21.88"/>
    </edge>
    <edge id=":J7_9" function="internal">
        <lane id=":J7_9_0" index="0" speed="6.46" length="9.03" shape="25.44,21.81 25.14,19.35 24.12,17.59 22.38,16.53 19.92,16.18"/>
    </edge>
    <edge id=":J7_10" function="internal">
        <lane id=":J7_10_0" index="0" speed="13.89" length="14.68" shape="25.44,21.81 25.97,7.15"/>
    </edge>
    <edge id=":J7_11" function="internal">
        <lane id=":J7_11_0" index="0" speed="8.11" length="14.40" shape="25.44,21.81 26.08,17.95 27.81,15.19 30.64,13.54 34.55,13.00"/>
    </edge>
    <edge id=":J8_0" function="internal">
        <lane id=":J8_0_0" index="0" speed="13.89" length="14.29" shape="96.19,7.83 95.51,22.10"/>
    </edge>
    <edge id=":J8_1" function="internal">
        <lane id=":J8_1_0" index="0" speed="8.18" length="3.80" shape="96.19,7.83 95.41,11.55"/>
    </edge>
    <edge id=":J8_6" function="internal">
        <lane id=":J8_6_0" index="0" speed="8.18" length="10.41" shape="95.41,11.55 93.60,14.21 90.75,15.80 86.86,16.32"/>
    </edge>
    <edge id=":J8_2" function="internal">
        <lane id=":J8_2_0" index="0" speed="6.72" length="9.26" shape="86.86,13.12 89.42,12.78 91.30,11.76 92.49,10.04 92.99,7.64"/>
    </edge>
    <edge id=":J8_3" function="internal">
        <lane id=":J8_3_0" index="0" speed="7.94" length="14.32" shape="86.86,13.12 90.77,13.69 93.51,15.38 95.09,18.18 95.51,22.10"/>
    </edge>
    <edge id=":J8_4" function="internal">
        <lane id=":J8_4_0" index="0" speed="6.43" length="9.03" shape="92.31,21.99 92.04,19.51 91.05,17.75 89.32,16.68 86.86,16.32"/>
    </edge>
    <edge id=":J8_5" function="internal">
        <lane id=":J8_5_0" index="0" speed="13.89" length="14.37" shape="92.31,21.99 92.99,7.64"/>
    </edge>
    <edge id=":J9_0" function="internal">
        <lane id=":J9_0_0" index="0" speed="3.90" length="2.56" shape="-26.34,-16.21 -27.03,-16.12 -27.53,-15.83 -27.84,-15.34 -27.95,-14.65"/>
    </edge>
    <edge id=":J9_1" function="internal">
        <lane id=":J9_1_0" index="0" speed="6.08" length="7.67" shape="-31.15,-14.72 -30.81,-16.79 -29.89,-18.26 -28.39,-19.13 -26.31,-19.41"/>
    </edge>

    <edge id="-E0" from="J1" to="J0" priority="-1">
        <lane id="-E0_0" index="0" speed="13.89" length="46.38" shape="18.36,86.80 -28.02,86.64"/>
    </edge>
    <edge id="-E1" from="J2" to="J1" priority="-1">
        <lane id="-E1_0" index="0" speed="13.89" length="55.57" shape="88.35,86.77 32.78,86.82"/>
    </edge>
    <edge id="-E10" from="J8" to="J7" priority="-1">
        <lane id="-E10_0" index="0" speed="13.89" length="52.31" shape="86.86,16.32 34.55,16.20"/>
    </edge>
    <edge id="-E11" from="J3" to="J8" priority="-1">
        <lane id="-E11_0" index="0" speed="13.89" length="16.95" shape="91.70,38.93 92.31,21.99"/>
    </edge>
    <edge id="-E12" from="J9" to="J6" priority="-1">
        <lane id="-E12_0" index="0" speed="13.89" length="22.01" shape="-27.95,-14.65 -28.45,7.35"/>
    </edge>
    <edge id="-E13" from="J10" to="J9" priority="-1">
        <lane id="-E13_0" index="0" speed="13.89" length="47.82" shape="21.48,-15.78 -26.34,-16.21"/>
    </edge>
    <edge id="-E14" from="J7" to="J10" priority="-1">
        <lane id="-E14_0" index="0" speed="13.89" length="17.23" shape="25.97,7.15 26.86,-10.06"/>
    </edge>
    <edge id="-E15" from="J11" to="J10" priority="-1">
        <lane id="-E15_0" index="0" speed="13.89" length="56.79" shape="92.67,-15.20 35.88,-15.65"/>
    </edge>
    <edge id="-E16" from="J8" to="J11" priority="-1">
        <lane id="-E16_0" index="0" speed="13.89" length="21.17" shape="92.99,7.64 94.25,-13.50"/>
    </edge>
    <edge id="-E2" from="J3" to="J2" priority="-1">
        <lane id="-E2_0" index="0" speed="13.89" length="28.73" shape="94.33,53.47 93.15,82.17"/>
    </edge>
    <edge id="-E3" from="J4" to="J3" priority="-1">
        <lane id="-E3_0" index="0" speed="13.89" length="51.85" shape="33.81,45.01 85.66,44.51"/>
    </edge>
    <edge id="-E4" from="J5" to="J4" priority="-1">
        <lane id="-E4_0" index="0" speed="13.89" length="42.57" shape="-23.30,44.80 19.27,45.04"/>
    </edge>
    <edge id="-E5" from="J0" to="J5" priority="-1">
        <lane id="-E5_0" index="0" speed="13.89" length="28.27" shape="-32.81,81.75 -32.26,53.48"/>
    </edge>
    <edge id="-E6" from="J4" to="J1" priority="-1">
        <lane id="-E6_0" index="0" speed="13.89" length="24.00" shape="27.93,53.99 27.29,77.99"/>
    </edge>
    <edge id="-E7" from="J6" to="J5" priority="-1">
        <lane id="-E7_0" index="0" speed="13.89" length="17.39" shape="-28.68,21.77 -28.85,39.16"/>
    </edge>
    <edge id="-E8" from="J7" to="J6" priority="-1">
        <lane id="-E8_0" index="0" speed="13.89" length="42.86" shape="19.92,16.18 -22.94,16.19"/>
    </edge>
    <edge id="-E9" from="J4" to="J7" priority="-1">
        <lane id="-E9_0" index="0" speed="13.89" length="17.54" shape="25.08,39.35 25.44,21.81"/>
    </edge>
    <edge id="E0" from="J0" to="J1" priority="-1">
        <lane id="E0_0" index="0" speed="13.89" length="46.38" shape="-28.01,83.44 18.37,83.60"/>
    </edge>
    <edge id="E1" from="J1" to="J2" priority="-1">
        <lane id="E1_0" index="0" speed="13.89" length="55.57" shape="32.78,83.62 88.35,83.57"/>
    </edge>
    <edge id="E10" from="J7" to="J8" priority="-1">
        <lane id="E10_0" index="0" speed="13.89" length="52.31" shape="34.55,13.00 86.86,13.12"/>
    </edge>
    <edge id="E11" from="J8" to="J3" priority="-1">
        <lane id="E11_0" index="0" speed="13.89" length="16.95" shape="95.51,22.10 94.89,39.05"/>
    </edge>
    <edge id="E12" from="J6" to="J9" priority="-1">
        <lane id="E12_0" index="0" speed="13.89" length="22.01" shape="-31.65,7.28 -31.15,-14.72"/>
    </edge>
    <edge id="E13" from="J9" to="J10" priority="-1">
        <lane id="E13_0" index="0" speed="13.89" length="47.82" shape="-26.31,-19.41 21.51,-18.98"/>
    </edge>
    <edge id="E14" from="J10" to="J7" priority="-1">
        <lane id="E14_0" index="0" speed="13.89" length="17.23" shape="30.05,-9.90 29.17,7.31"/>
    </edge>
    <edge id="E15" from="J10" to="J11" priority="-1">
        <lane id="E15_0" index="0" speed="13.89" length="56.79" shape="35.91,-18.85 92.69,-18.40"/>
    </edge>
    <edge id="E16" from="J11" to="J8" priority="-1">
        <lane id="E16_0" index="0" speed="13.89" length="21.17" shape="97.45,-13.31 96.19,7.83"/>
    </edge>
    <edge id="E2" from="J2" to="J3" priority="-1">
        <lane id="E2_0" index="0" speed="13.89" length="28.73" shape="89.95,82.04 91.14,53.34"/>
    </edge>
    <edge id="E3" from="J3" to="J4" priority="-1">
        <lane id="E3_0" index="0" speed="13.89" length="51.85" shape="85.69,47.71 33.84,48.21"/>
    </edge>
    <edge id="E4" from="J4" to="J5" priority="-1">
        <lane id="E4_0" index="0" speed="13.89" length="42.57" shape="19.25,48.24 -23.32,48.00"/>
    </edge>
    <edge id="E5" from="J5" to="J0" priority="-1">
        <lane id="E5_0" index="0" speed="13.89" length="28.27" shape="-29.06,53.55 -29.61,81.81"/>
    </edge>
    <edge id="E6" from="J1" to="J4" priority="-1">
        <lane id="E6_0" index="0" speed="13.89" length="24.00" shape="24.09,77.90 24.73,53.90"/>
    </edge>
    <edge id="E7" from="J5" to="J6" priority="-1">
        <lane id="E7_0" index="0" speed="13.89" length="17.39" shape="-32.05,39.13 -31.88,21.74"/>
    </edge>
    <edge id="E8" from="J6" to="J7" priority="-1">
        <lane id="E8_0" index="0" speed="13.89" length="42.86" shape="-22.94,12.99 19.92,12.98"/>
    </edge>
    <edge id="E9" from="J7" to="J4" priority="-1">
        <lane id="E9_0" index="0" speed="13.89" length="17.54" shape="28.64,21.88 28.28,39.42"/>
    </edge>

    <junction id="J0" type="priority" x="-31.27" y="85.03" incLanes="-E0_0 E5_0" intLanes=":J0_0_0 :J0_1_0" shape="-28.03,88.24 -28.01,81.84 -34.41,81.72 -33.75,85.33 -32.88,86.60 -31.63,87.51 -30.01,88.05">
        <request index="0" response="00" foes="00" cont="0"/>
        <request index="1" response="00" foes="00" cont="0"/>
    </junction>
    <junction id="J1" type="priority" x="25.49" y="85.23" incLanes="-E1_0 -E6_0 E0_0" intLanes=":J1_0_0 :J1_6_0 :J1_2_0 :J1_3_0 :J1_4_0 :J1_5_0" shape="32.78,88.42 32.78,82.02 30.57,81.58 29.80,81.03 29.27,80.25 28.96,79.25 28.89,78.03 22.49,77.86 21.98,80.17 21.40,80.97 20.61,81.55 19.60,81.89 18.38,82.00 18.35,88.40">
        <request index="0" response="000000" foes="001000" cont="0"/>
        <request index="1" response="110000" foes="111000" cont="1"/>
        <request index="2" response="100000" foes="100000" cont="0"/>
        <request index="3" response="100011" foes="100011" cont="0"/>
        <request index="4" response="000000" foes="000010" cont="0"/>
        <request index="5" response="000000" foes="001110" cont="0"/>
    </junction>
    <junction id="J10" type="priority" x="28.83" y="-17.31" incLanes="-E15_0 E13_0 -E14_0" intLanes=":J10_0_0 :J10_1_0 :J10_2_0 :J10_6_0 :J10_4_0 :J10_5_0" shape="35.87,-14.05 35.92,-20.45 21.52,-20.58 21.46,-14.18 23.66,-13.71 24.41,-13.15 24.93,-12.37 25.21,-11.37 25.26,-10.15 31.65,-9.82 32.22,-12.18 32.81,-13.01 33.62,-13.60 34.64,-13.94">
        <request index="0" response="000000" foes="001000" cont="0"/>
        <request index="1" response="000000" foes="111000" cont="0"/>
        <request index="2" response="000000" foes="100000" cont="0"/>
        <request index="3" response="000011" foes="100011" cont="1"/>
        <request index="4" response="000010" foes="000010" cont="0"/>
        <request index="5" response="001110" foes="001110" cont="0"/>
    </junction>
    <junction id="J11" type="priority" x="96.05" y="-16.77" incLanes="E15_0 -E16_0" intLanes=":J11_0_0 :J11_1_0" shape="92.71,-20.00 92.66,-13.60 99.04,-13.22 98.98,-15.27 98.52,-16.96 97.66,-18.27 96.41,-19.22 94.75,-19.79">
        <request index="0" response="00" foes="00" cont="0"/>
        <request index="1" response="00" foes="00" cont="0"/>
    </junction>
    <junction id="J2" type="priority" x="91.42" y="85.17" incLanes="-E2_0 E1_0" intLanes=":J2_0_0 :J2_1_0" shape="94.74,82.24 88.35,81.97 88.36,88.37 91.79,87.69 93.02,86.84 93.92,85.64 94.50,84.11">
        <request index="0" response="00" foes="00" cont="0"/>
        <request index="1" response="00" foes="00" cont="0"/>
    </junction>
    <junction id="J3" type="priority" x="93.04" y="46.04" incLanes="E11_0 -E3_0 E2_0" intLanes=":J3_0_0 :J3_6_0 :J3_2_0 :J3_3_0 :J3_4_0 :J3_5_0" shape="96.49,39.10 90.10,38.87 89.54,41.10 88.91,41.88 88.05,42.44 86.96,42.79 85.64,42.91 85.70,49.31 87.91,49.73 88.66,50.28 89.19,51.05 89.48,52.05 89.54,53.27 95.93,53.53">
        <request index="0" response="000000" foes="001000" cont="0"/>
        <request index="1" response="110000" foes="111000" cont="1"/>
        <request index="2" response="100000" foes="100000" cont="0"/>
        <request index="3" response="100011" foes="100011" cont="0"/>
        <request index="4" response="000000" foes="000010" cont="0"/>
        <request index="5" response="000000" foes="001110" cont="0"/>
    </junction>
    <junction id="J4" type="priority" x="26.53" y="46.68" incLanes="E3_0 E9_0 -E4_0 E6_0" intLanes=":J4_0_0 :J4_1_0 :J4_2_0 :J4_3_0 :J4_4_0 :J4_12_0 :J4_6_0 :J4_7_0 :J4_8_0 :J4_9_0 :J4_10_0 :J4_13_0" shape="33.86,49.81 33.80,43.41 31.58,42.99 30.82,42.44 30.28,41.67 29.97,40.67 29.88,39.45 23.48,39.32 22.98,41.62 22.39,42.42 21.58,42.99 20.54,43.33 19.28,43.44 19.24,49.84 21.45,50.30 22.22,50.86 22.75,51.64 23.06,52.64 23.14,53.86 29.53,54.03 30.06,51.70 30.67,50.89 31.51,50.30 32.57,49.94">
        <request index="0"  response="000000010000" foes="000100010000" cont="0"/>
        <request index="1"  response="111000110000" foes="111100110000" cont="0"/>
        <request index="2"  response="110011110000" foes="110111110000" cont="0"/>
        <request index="3"  response="000000000000" foes="100010000000" cont="0"/>
        <request index="4"  response="000000000000" foes="100110000111" cont="0"/>
        <request index="5"  response="011000000000" foes="111110000110" cont="1"/>
        <request index="6"  response="010000000000" foes="010000000100" cont="0"/>
        <request index="7"  response="110000111000" foes="110000111100" cont="0"/>
        <request index="8"  response="110000110111" foes="110000110111" cont="0"/>
        <request index="9"  response="000000000000" foes="000000100010" cont="0"/>
        <request index="10" response="000000000000" foes="000111100110" cont="0"/>
        <request index="11" response="000000111000" foes="000110111110" cont="1"/>
    </junction>
    <junction id="J5" type="priority" x="-30.52" y="46.36" incLanes="E4_0 -E7_0 -E5_0" intLanes=":J5_0_0 :J5_1_0 :J5_2_0 :J5_3_0 :J5_4_0 :J5_6_0" shape="-23.32,49.60 -23.29,43.20 -25.51,42.74 -26.28,42.18 -26.83,41.40 -27.15,40.40 -27.25,39.18 -33.65,39.12 -33.86,53.45 -27.46,53.58 -26.97,51.36 -26.39,50.58 -25.59,50.03 -24.57,49.70">
        <request index="0" response="001000" foes="001000" cont="0"/>
        <request index="1" response="111000" foes="111000" cont="0"/>
        <request index="2" response="000000" foes="100000" cont="0"/>
        <request index="3" response="000000" foes="100011" cont="0"/>
        <request index="4" response="000000" foes="000010" cont="0"/>
        <request index="5" response="001100" foes="001110" cont="1"/>
    </junction>
    <junction id="J6" type="priority" x="-30.21" y="14.59" incLanes="-E8_0 -E12_0 E7_0" intLanes=":J6_0_0 :J6_1_0 :J6_2_0 :J6_3_0 :J6_4_0 :J6_6_0" shape="-22.94,17.79 -22.94,11.39 -25.15,10.94 -25.91,10.39 -26.45,9.61 -26.76,8.61 -26.85,7.39 -33.25,7.25 -33.48,21.73 -27.08,21.79 -26.60,19.57 -26.02,18.79 -25.22,18.23 -24.19,17.90">
        <request index="0" response="001000" foes="001000" cont="0"/>
        <request index="1" response="111000" foes="111000" cont="0"/>
        <request index="2" response="000000" foes="100000" cont="0"/>
        <request index="3" response="000000" foes="100011" cont="0"/>
        <request index="4" response="000000" foes="000010" cont="0"/>
        <request index="5" response="001100" foes="001110" cont="1"/>
    </junction>
    <junction id="J7" type="priority" x="27.19" y="14.58" incLanes="-E10_0 E14_0 E8_0 -E9_0" intLanes=":J7_0_0 :J7_1_0 :J7_12_0 :J7_3_0 :J7_4_0 :J7_5_0 :J7_6_0 :J7_7_0 :J7_13_0 :J7_9_0 :J7_10_0 :J7_11_0" shape="34.54,17.80 34.56,11.40 32.36,10.95 31.61,10.39 31.09,9.61 30.81,8.61 30.76,7.39 24.37,7.06 23.78,9.46 23.15,10.30 22.30,10.90 21.22,11.26 19.92,11.38 19.92,17.78 22.14,18.23 22.90,18.78 23.44,19.56 23.76,20.56 23.84,21.78 30.24,21.91 30.76,19.62 31.36,18.82 32.19,18.25 33.25,17.91">
        <request index="0"  response="000000000000" foes="000100010000" cont="0"/>
        <request index="1"  response="000000000000" foes="111100110000" cont="0"/>
        <request index="2"  response="000111000000" foes="110111110000" cont="1"/>
        <request index="3"  response="000010000000" foes="100010000000" cont="0"/>
        <request index="4"  response="000110000111" foes="100110000111" cont="0"/>
        <request index="5"  response="011110000110" foes="111110000110" cont="0"/>
        <request index="6"  response="000000000000" foes="010000000100" cont="0"/>
        <request index="7"  response="000000000000" foes="110000111100" cont="0"/>
        <request index="8"  response="000000000011" foes="110000110111" cont="1"/>
        <request index="9"  response="000000000010" foes="000000100010" cont="0"/>
        <request index="10" response="000111000110" foes="000111100110" cont="0"/>
        <request index="11" response="000110111110" foes="000110111110" cont="0"/>
    </junction>
    <junction id="J8" type="priority" x="94.17" y="14.74" incLanes="E16_0 E10_0 -E11_0" intLanes=":J8_0_0 :J8_6_0 :J8_2_0 :J8_3_0 :J8_4_0 :J8_5_0" shape="97.78,7.92 91.39,7.54 90.79,9.76 90.14,10.53 89.28,11.08 88.18,11.41 86.87,11.52 86.85,17.92 89.06,18.37 89.82,18.93 90.34,19.71 90.64,20.71 90.71,21.93 97.10,22.16">
        <request index="0" response="000000" foes="001000" cont="0"/>
        <request index="1" response="110000" foes="111000" cont="1"/>
        <request index="2" response="100000" foes="100000" cont="0"/>
        <request index="3" response="100011" foes="100011" cont="0"/>
        <request index="4" response="000000" foes="000010" cont="0"/>
        <request index="5" response="000000" foes="001110" cont="0"/>
    </junction>
    <junction id="J9" type="priority" x="-29.48" y="-17.84" incLanes="-E13_0 E12_0" intLanes=":J9_0_0 :J9_1_0" shape="-26.35,-14.61 -26.29,-21.01 -29.82,-20.34 -31.07,-19.48 -31.97,-18.26 -32.53,-16.68 -32.75,-14.76">
        <request index="0" response="00" foes="00" cont="0"/>
        <request index="1" response="00" foes="00" cont="0"/>
    </junction>

    <junction id=":J1_6_0" type="internal" x="28.74" y="86.18" incLanes=":J1_1_0 E0_0" intLanes=":J1_3_0 :J1_4_0 :J1_5_0"/>
    <junction id=":J10_6_0" type="internal" x="25.54" y="-18.30" incLanes=":J10_3_0 -E15_0" intLanes=":J10_0_0 :J10_1_0 :J10_5_0"/>