<?xml version="1.0" encoding="UTF-8"?>

<routes xmlns:xsi="http://www.w3.org/2001/XMLSchema-instance" xsi:noNamespaceSchemaLocation="http://sumo.dlr.de/xsd/routes_file.xsd">
    <vType id="bus" length="4" maxSpeed="10" accel="0.2" decel="0.1" sigma="0.1" speedDev="0.1" vClass="bus"/>
    <flow id="bus_flow" type="bus" from="edge0" to="edge3" begin="0" end="0" number="1" departPos="last" color="blue"/>

    <vType id="auto_yellow" length="5" maxSpeed="30" accel="2.6" decel="4.5" sigma="0.2" speedDev="0.2" vClass="passenger"/>
    <flow id="car_flow1" type="auto_yellow" begin="0" end="0" number="3" from="edge0"/>
    
    <vType id="auto_red" length="5" maxSpeed="30" accel="2.6" decel="4.5" sigma="0.2" speedDev="0.2" vClass="passenger"/>
    <flow id="car_flow2" type="auto_red" begin="0" end="0" number="2" color="red" from="edge0"/>
</routes>




