<?xml version="1.0" encoding="UTF-8"?>

<configuration xmlns:xsi="http://www.w3.org/2001/XMLSchema-instance" xsi:noNamespaceSchemaLocation="http://sumo.dlr.de/xsd/sumoConfiguration.xsd">
<input>
       <net-file value="../Tutorial 3.2 - Rerouting/network.net.xml"/>
       <route-files value="../Tutorial 3.2 - Rerouting/elem.rou.xml"/>
       <additional-files value="../Tutorial 3.2 - Rerouting/additional.add.xml"/>

</input>
</configuration>