<?xml version="1.0" encoding="UTF-8"?>

<!-- generated on 2022-09-29 11:07:49 by Eclipse SUMO netedit Version 1.14.1
-->

<routes xmlns:xsi="http://www.w3.org/2001/XMLSchema-instance" xsi:noNamespaceSchemaLocation="http://sumo.dlr.de/xsd/routes_file.xsd">
    <!-- Vehicles, persons and containers (sorted by depart) -->
    <vType id="auto" vClass="passenger" length="5" accel="3.5" decel="2.2" sigma="1.0"/>
    <vType id="bici" vClass="bicycle" length="5" accel="1" decel="1" sigma="1.0"/>


    <flow id="auto_flow" type="auto" begin="0.00" end="0.00" color="red" number="5" from="edge0" to="edge5"/>
    <flow id="bici_flow" type="bici" begin="0.00" end="0.00" color="green" number="5" from="edge0" to="edge5"/>
</routes>
