<?xml version="1.0" encoding="UTF-8"?>

<!-- generated on 2022-09-29 12:02:50 by Eclipse SUMO netedit Version 1.14.1
<configuration xmlns:xsi="http://www.w3.org/2001/XMLSchema-instance" xsi:noNamespaceSchemaLocation="http://sumo.dlr.de/xsd/netconvertConfiguration.xsd">

    <input>
        <sumo-net-file value="network1_3.net.xml"/>
    </input>

    <output>
        <output-file value="network1_3.net.xml"/>
    </output>

    <processing>
        <geometry.min-radius.fix.railways value="false"/>
        <geometry.max-grade.fix value="false"/>
        <offset.disable-normalization value="true"/>
        <lefthand value="false"/>
    </processing>

    <junctions>
        <no-turnarounds value="true"/>
        <junctions.corner-detail value="5"/>
        <junctions.limit-turn-speed value="5.5"/>
        <rectangular-lane-cut value="false"/>
    </junctions>

    <pedestrian>
        <walkingareas value="false"/>
    </pedestrian>

</configuration>
-->

<net version="1.9" junctionCornerDetail="5" limitTurnSpeed="5.50" xmlns:xsi="http://www.w3.org/2001/XMLSchema-instance" xsi:noNamespaceSchemaLocation="http://sumo.dlr.de/xsd/net_file.xsd">

    <location netOffset="0.00,0.00" convBoundary="-6.32,-52.26,89.24,71.27" origBoundary="-10000000000.00,-10000000000.00,10000000000.00,10000000000.00" projParameter="!"/>

    <edge id=":J20_0" function="internal">
        <lane id=":J20_0_0" index="0" speed="4.17" length="1.30" shape="14.95,65.34 15.20,65.56 15.47,65.72 15.78,65.82 16.11,65.86"/>
        <lane id=":J20_0_1" index="1" speed="6.58" length="3.91" shape="12.58,67.49 13.32,68.16 14.15,68.65 15.06,68.95 16.05,69.06"/>
    </edge>
    <edge id=":J21_0" function="internal">
        <lane id=":J21_0_0" index="0" speed="13.89" length="1.96" shape="49.34,66.44 49.62,66.43 49.82,66.40 50.01,66.32 50.25,66.17"/>
        <lane id=":J21_0_1" index="1" speed="7.17" length="1.96" shape="49.28,69.64 50.14,69.63 50.74,69.54 51.30,69.29 52.03,68.83"/>
    </edge>
    <edge id=":J22_0" function="internal">
        <lane id=":J22_0_0" index="0" speed="4.11" length="1.41" shape="72.74,51.18 73.01,50.95 73.23,50.68 73.37,50.37 73.44,50.01"/>
        <lane id=":J22_0_1" index="1" speed="6.48" length="4.24" shape="74.51,53.84 75.35,53.15 75.98,52.34 76.41,51.40 76.62,50.33"/>
    </edge>
    <edge id=":J23_0" function="internal">
        <lane id=":J23_0_0" index="0" speed="4.01" length="1.73" shape="75.13,33.39 75.12,32.94 75.00,32.54 74.77,32.20 74.43,31.90"/>
        <lane id=":J23_0_1" index="1" speed="6.27" length="5.20" shape="78.31,33.72 78.29,32.36 77.93,31.17 77.24,30.13 76.21,29.25"/>
    </edge>
    <edge id=":J24_0" function="internal">
        <lane id=":J24_0_0" index="0" speed="13.33" length="10.52" shape="64.18,25.02 61.90,23.27 60.32,21.93 58.59,21.07 55.87,20.72"/>
        <lane id=":J24_0_1" index="1" speed="13.89" length="10.52" shape="65.96,22.37 63.23,20.32 61.31,18.83 59.21,17.90 55.95,17.52"/>
    </edge>
    <edge id=":J24_2" function="internal">
        <lane id=":J24_2_0" index="0" speed="13.89" length="10.21" shape="66.32,18.13 63.37,19.48 61.27,20.30 59.08,20.68 55.87,20.72"/>
        <lane id=":J24_2_1" index="1" speed="13.89" length="10.21" shape="65.01,15.21 62.45,16.40 60.63,17.13 58.73,17.47 55.95,17.52"/>
    </edge>
    <edge id=":J25_0" function="internal">
        <lane id=":J25_0_0" index="0" speed="13.89" length="8.78" shape="23.92,19.94 21.58,20.12 20.04,20.72 18.56,21.60 16.36,22.65"/>
        <lane id=":J25_0_1" index="1" speed="13.89" length="8.78" shape="24.00,16.75 21.28,16.92 19.49,17.53 17.75,18.48 15.21,19.66"/>
    </edge>
    <edge id=":J25_2" function="internal">
        <lane id=":J25_2_0" index="0" speed="9.79" length="8.40" shape="24.00,16.75 21.48,16.90 19.61,17.12 17.97,16.83 16.11,15.44"/>
        <lane id=":J25_2_1" index="1" speed="8.95" length="6.95" shape="24.00,16.75 22.05,16.49 20.82,15.82 19.78,14.73 18.39,13.19"/>
    </edge>
    <edge id=":J26_0" function="internal">
        <lane id=":J26_0_0" index="0" speed="4.00" length="1.77" shape="1.41,28.43 1.00,28.64 0.70,28.94 0.49,29.31 0.39,29.76"/>
        <lane id=":J26_0_1" index="1" speed="6.26" length="5.32" shape="0.25,25.44 -0.97,26.09 -1.89,26.98 -2.49,28.10 -2.79,29.45"/>
    </edge>
    <edge id=":J27_0" function="internal">
        <lane id=":J27_0_0" index="0" speed="4.15" length="1.34" shape="-1.27,46.73 -1.27,47.07 -1.20,47.39 -1.06,47.69 -0.86,47.96"/>
        <lane id=":J27_0_1" index="1" speed="6.55" length="4.01" shape="-4.45,46.42 -4.45,47.44 -4.25,48.40 -3.84,49.29 -3.22,50.12"/>
    </edge>
    <edge id=":J28_0" function="internal">
        <lane id=":J28_0_0" index="0" speed="6.48" length="4.22" shape="-0.72,-1.60 -1.40,-2.44 -1.86,-3.36 -2.08,-4.36 -2.09,-5.44"/>
        <lane id=":J28_0_1" index="1" speed="4.12" length="1.41" shape="1.55,-3.85 1.33,-4.13 1.17,-4.43 1.10,-4.77 1.10,-5.13"/>
    </edge>
    <edge id=":J29_0" function="internal">
        <lane id=":J29_0_0" index="0" speed="6.33" length="4.86" shape="1.03,-37.08 1.30,-38.31 1.82,-39.36 2.62,-40.22 3.67,-40.91"/>
        <lane id=":J29_0_1" index="1" speed="4.04" length="1.62" shape="4.22,-36.77 4.31,-37.18 4.48,-37.53 4.75,-37.81 5.10,-38.04"/>
    </edge>
    <edge id=":J30_0" function="internal">
        <lane id=":J30_0_0" index="0" speed="8.02" length="1.52" shape="35.13,-56.56 35.74,-56.85 36.18,-57.00 36.64,-57.06 37.31,-57.06"/>
        <lane id=":J30_0_1" index="1" speed="13.89" length="1.52" shape="36.56,-53.69 36.76,-53.79 36.91,-53.84 37.06,-53.86 37.28,-53.86"/>
    </edge>
    <edge id=":J31_0" function="internal">
        <lane id=":J31_0_0" index="0" speed="7.20" length="1.94" shape="65.39,-56.81 66.25,-56.78 66.84,-56.68 67.38,-56.42 68.09,-55.95"/>
        <lane id=":J31_0_1" index="1" speed="13.89" length="1.94" shape="65.36,-53.61 65.65,-53.60 65.85,-53.57 66.03,-53.48 66.26,-53.32"/>
    </edge>
    <edge id=":J32_0" function="internal">
        <lane id=":J32_0_0" index="0" speed="6.59" length="3.87" shape="88.28,-41.92 89.04,-41.28 89.62,-40.54 90.04,-39.69 90.28,-38.73"/>
        <lane id=":J32_0_1" index="1" speed="4.17" length="1.29" shape="86.45,-39.29 86.71,-39.08 86.90,-38.83 87.04,-38.55 87.12,-38.23"/>
    </edge>
    <edge id=":J33_0" function="internal">
        <lane id=":J33_0_0" index="0" speed="7.68" length="1.65" shape="93.98,-15.31 94.08,-14.59 94.09,-14.08 93.98,-13.58 93.74,-12.90"/>
        <lane id=":J33_0_1" index="1" speed="13.89" length="1.65" shape="90.82,-14.81 90.85,-14.57 90.86,-14.40 90.82,-14.23 90.74,-14.01"/>
    </edge>
    <edge id=":J34_0" function="internal">
        <lane id=":J34_0_0" index="0" speed="6.62" length="3.81" shape="86.16,7.62 85.74,8.50 85.18,9.25 84.48,9.86 83.63,10.34"/>
        <lane id=":J34_0_1" index="1" speed="4.19" length="1.27" shape="83.16,6.51 83.02,6.81 82.83,7.06 82.60,7.26 82.32,7.42"/>
    </edge>

    <edge id="edge0" from="J20" to="J21" priority="-1">
        <lane id="edge0_0" index="0" speed="13.89" length="33.23" shape="16.11,65.86 49.34,66.44"/>
        <lane id="edge0_1" index="1" speed="13.89" length="33.23" shape="16.05,69.06 49.28,69.64"/>
    </edge>
    <edge id="edge1" from="J21" to="J22" priority="-1">
        <lane id="edge1_0" index="0" speed="13.89" length="27.02" shape="50.25,66.17 72.74,51.18"/>
        <lane id="edge1_1" index="1" speed="13.89" length="27.02" shape="52.03,68.83 74.51,53.84"/>
    </edge>
    <edge id="edge10" from="J33" to="J34" priority="-1">
        <lane id="edge10_0" index="0" speed="13.89" length="21.88" shape="93.74,-12.90 86.16,7.62"/>
        <lane id="edge10_1" index="1" speed="13.89" length="21.88" shape="90.74,-14.01 83.16,6.51"/>
    </edge>
    <edge id="edge11" from="J32" to="J33" priority="-1">
        <lane id="edge11_0" index="0" speed="13.89" length="23.71" shape="90.28,-38.73 93.98,-15.31"/>
        <lane id="edge11_1" index="1" speed="13.89" length="23.71" shape="87.12,-38.23 90.82,-14.81"/>
    </edge>
    <edge id="edge12" from="J31" to="J32" priority="-1">
        <lane id="edge12_0" index="0" speed="13.89" length="24.59" shape="68.09,-55.95 88.28,-41.92"/>
        <lane id="edge12_1" index="1" speed="13.89" length="24.59" shape="66.26,-53.32 86.45,-39.29"/>
    </edge>
    <edge id="edge13" from="J30" to="J31" priority="-1">
        <lane id="edge13_0" index="0" speed="13.89" length="28.08" shape="37.31,-57.06 65.39,-56.81"/>
        <lane id="edge13_1" index="1" speed="13.89" length="28.08" shape="37.28,-53.86 65.36,-53.61"/>
    </edge>
    <edge id="edge14" from="J29" to="J30" priority="-1">
        <lane id="edge14_0" index="0" speed="13.89" length="35.14" shape="3.67,-40.91 35.13,-56.56"/>
        <lane id="edge14_1" index="1" speed="13.89" length="35.14" shape="5.10,-38.04 36.56,-53.69"/>
    </edge>
    <edge id="edge15" from="J28" to="J29" priority="-1">
        <lane id="edge15_0" index="0" speed="13.89" length="31.79" shape="-2.09,-5.44 1.03,-37.08"/>
        <lane id="edge15_1" index="1" speed="13.89" length="31.79" shape="1.10,-5.13 4.22,-36.77"/>
    </edge>
    <edge id="edge16" from="J25" to="J28" priority="-1">
        <lane id="edge16_0" index="0" speed="13.89" length="23.95" shape="16.11,15.44 -0.72,-1.60"/>
        <lane id="edge16_1" index="1" speed="13.89" length="23.95" shape="18.39,13.19 1.55,-3.85"/>
    </edge>
    <edge id="edge3" from="J22" to="J23" priority="-1">
        <lane id="edge3_0" index="0" speed="13.89" length="16.70" shape="73.44,50.01 75.13,33.39"/>
        <lane id="edge3_1" index="1" speed="13.89" length="16.70" shape="76.62,50.33 78.31,33.72"/>
    </edge>
    <edge id="edge4" from="J23" to="J24" priority="-1">
        <lane id="edge4_0" index="0" speed="13.89" length="12.35" shape="74.43,31.90 64.18,25.02"/>
        <lane id="edge4_1" index="1" speed="13.89" length="12.35" shape="76.21,29.25 65.96,22.37"/>
    </edge>
    <edge id="edge5" from="J24" to="J25" priority="-1">
        <lane id="edge5_0" index="0" speed="13.89" length="31.96" shape="55.87,20.72 23.92,19.94"/>
        <lane id="edge5_1" index="1" speed="13.89" length="31.96" shape="55.95,17.52 24.00,16.75"/>
    </edge>
    <edge id="edge6" from="J25" to="J26" priority="-1">
        <lane id="edge6_0" index="0" speed="13.89" length="16.03" shape="16.36,22.65 1.41,28.43"/>
        <lane id="edge6_1" index="1" speed="13.89" length="16.03" shape="15.21,19.66 0.25,25.44"/>
    </edge>
    <edge id="edge7" from="J26" to="J27" priority="-1">
        <lane id="edge7_0" index="0" speed="13.89" length="17.05" shape="0.39,29.76 -1.27,46.73"/>
        <lane id="edge7_1" index="1" speed="13.89" length="17.05" shape="-2.79,29.45 -4.45,46.42"/>
    </edge>
    <edge id="edge8" from="J27" to="J20" priority="-1">
        <lane id="edge8_0" index="0" speed="13.89" length="23.49" shape="-0.86,47.96 14.95,65.34"/>
        <lane id="edge8_1" index="1" speed="13.89" length="23.49" shape="-3.22,50.12 12.58,67.49"/>
    </edge>
    <edge id="edge9" from="J34" to="J24" priority="-1">
        <lane id="edge9_0" index="0" speed="13.89" length="18.98" shape="83.63,10.34 66.32,18.13"/>
        <lane id="edge9_1" index="1" speed="13.89" length="18.98" shape="82.32,7.42 65.01,15.21"/>
    </edge>

    <junction id="J20" type="priority" x="13.26" y="70.61" incLanes="edge8_0 edge8_1" intLanes=":J20_0_0 :J20_0_1" shape="16.02,70.66 16.13,64.26 11.40,68.57 12.74,69.71 13.49,70.11 14.28,70.40 15.13,70.59">
        <request index="0" response="00" foes="00" cont="0"/>
        <request index="1" response="00" foes="00" cont="0"/>
    </junction>
    <junction id="J21" type="priority" x="51.25" y="71.27" incLanes="edge0_0 edge0_1" intLanes=":J21_0_0 :J21_0_1" shape="52.91,70.16 49.36,64.84 49.25,71.24 50.70,71.21 51.20,71.11 51.68,70.92 52.22,70.61">
        <request index="0" response="00" foes="00" cont="0"/>
        <request index="1" response="00" foes="00" cont="0"/>
    </junction>
    <junction id="J22" type="priority" x="77.91" y="53.50" incLanes="edge1_0 edge1_1" intLanes=":J22_0_0 :J22_0_1" shape="78.22,50.50 71.85,49.85 75.40,55.17 76.83,53.91 77.36,53.17 77.77,52.35 78.05,51.46">
        <request index="0" response="00" foes="00" cont="0"/>
        <request index="1" response="00" foes="00" cont="0"/>
    </junction>
    <junction id="J23" type="priority" x="80.29" y="30.06" incLanes="edge3_0 edge3_1" intLanes=":J23_0_0 :J23_0_1" shape="77.10,27.92 73.53,33.23 79.90,33.88 79.76,31.52 79.40,30.48 78.83,29.53 78.07,28.68">
        <request index="0" response="00" foes="00" cont="0"/>
        <request index="1" response="00" foes="00" cont="0"/>
    </junction>
    <junction id="J24" type="priority" x="59.35" y="16.00" incLanes="edge4_0 edge4_1 edge9_0 edge9_1" intLanes=":J24_0_0 :J24_0_1 :J24_2_0 :J24_2_1" shape="63.29,26.35 66.85,21.04 66.31,20.51 66.26,20.26 66.35,20.02 66.59,19.80 66.98,19.59 64.35,13.75 61.39,15.12 60.31,15.54 59.20,15.80 57.83,15.92 55.99,15.92 55.83,22.32 58.87,22.88 59.83,23.49 60.73,24.28 61.81,25.24">
        <request index="0" response="0000" foes="1100" cont="0"/>
        <request index="1" response="0000" foes="1100" cont="0"/>
        <request index="2" response="0011" foes="0011" cont="0"/>
        <request index="3" response="0011" foes="0011" cont="0"/>
    </junction>
    <junction id="J25" type="priority" x="22.54" y="15.11" incLanes="edge5_0 edge5_1" intLanes=":J25_0_0 :J25_0_1 :J25_2_0 :J25_2_1" shape="23.88,21.54 24.04,15.15 22.08,14.75 21.48,14.31 20.94,13.71 20.34,12.96 19.53,12.06 14.97,16.56 15.40,17.21 15.42,17.50 15.29,17.75 15.03,17.97 14.63,18.17 16.94,24.14 19.45,22.85 20.32,22.31 21.20,21.88 22.32,21.61">
        <request index="0" response="0000" foes="0000" cont="0"/>
        <request index="1" response="0000" foes="0000" cont="0"/>
        <request index="2" response="0000" foes="0000" cont="0"/>
        <request index="3" response="0000" foes="0000" cont="0"/>
    </junction>
    <junction id="J26" type="priority" x="-4.00" y="25.37" incLanes="edge6_0 edge6_1" intLanes=":J26_0_0 :J26_0_1" shape="1.99,29.92 -0.32,23.95 -2.41,25.17 -3.18,26.00 -3.76,26.96 -4.16,28.06 -4.38,29.29">
        <request index="0" response="00" foes="00" cont="0"/>
        <request index="1" response="00" foes="00" cont="0"/>
    </junction>
    <junction id="J27" type="priority" x="-6.32" y="49.09" incLanes="edge7_0 edge7_1" intLanes=":J27_0_0 :J27_0_1" shape="-4.41,51.19 0.33,46.88 -6.04,46.26 -5.98,48.07 -5.77,48.91 -5.44,49.71 -4.98,50.47">
        <request index="0" response="00" foes="00" cont="0"/>
        <request index="1" response="00" foes="00" cont="0"/>
    </junction>
    <junction id="J28" type="priority" x="2.69" y="-4.97" incLanes="edge16_0 edge16_1" intLanes=":J28_0_0 :J28_0_1" shape="-1.86,-0.47 2.69,-4.97 -3.68,-5.60 -3.61,-3.70 -3.37,-2.82 -3.00,-1.99 -2.50,-1.21">
        <request index="0" response="00" foes="00" cont="0"/>
        <request index="1" response="00" foes="00" cont="0"/>
    </junction>
    <junction id="J29" type="priority" x="5.81" y="-36.61" incLanes="edge15_0 edge15_1" intLanes=":J29_0_0 :J29_0_1" shape="5.81,-36.61 2.96,-42.34 1.16,-41.07 0.49,-40.28 -0.01,-39.37 -0.36,-38.36 -0.56,-37.24">
        <request index="0" response="00" foes="00" cont="0"/>
        <request index="1" response="00" foes="00" cont="0"/>
    </junction>
    <junction id="J30" type="priority" x="37.27" y="-52.26" incLanes="edge14_0 edge14_1" intLanes=":J30_0_0 :J30_0_1" shape="37.27,-52.26 37.33,-58.66 36.21,-58.64 35.81,-58.58 35.44,-58.46 35.00,-58.27 34.42,-57.99">
        <request index="0" response="00" foes="00" cont="0"/>
        <request index="1" response="00" foes="00" cont="0"/>
    </junction>
    <junction id="J31" type="priority" x="65.35" y="-52.01" incLanes="edge13_0 edge13_1" intLanes=":J31_0_0 :J31_0_1" shape="65.35,-52.01 69.00,-57.27 67.80,-58.04 67.33,-58.24 66.83,-58.34 66.22,-58.39 65.41,-58.41">
        <request index="0" response="00" foes="00" cont="0"/>
        <request index="1" response="00" foes="00" cont="0"/>
    </junction>
    <junction id="J32" type="priority" x="85.54" y="-37.98" incLanes="edge12_0 edge12_1" intLanes=":J32_0_0 :J32_0_1" shape="85.54,-37.98 91.86,-38.98 91.38,-40.65 90.98,-41.39 90.49,-42.07 89.89,-42.68 89.19,-43.24">
        <request index="0" response="00" foes="00" cont="0"/>
        <request index="1" response="00" foes="00" cont="0"/>
    </junction>
    <junction id="J33" type="priority" x="89.24" y="-14.56" incLanes="edge11_0 edge11_1" intLanes=":J33_0_0 :J33_0_1" shape="95.56,-15.56 89.24,-14.56 95.24,-12.34 95.63,-13.50 95.71,-13.92 95.72,-14.35 95.66,-14.87">
        <request index="0" response="00" foes="00" cont="0"/>
        <request index="1" response="00" foes="00" cont="0"/>
    </junction>
    <junction id="J34" type="priority" x="81.66" y="5.96" incLanes="edge10_0 edge10_1" intLanes=":J34_0_0 :J34_0_1" shape="87.66,8.18 81.66,5.96 84.29,11.80 85.75,10.90 86.35,10.34 86.87,9.70 87.31,8.98">
        <request index="0" response="00" foes="00" cont="0"/>
        <request index="1" response="00" foes="00" cont="0"/>
    </junction>

    <connection from="edge0" to="edge1" fromLane="0" toLane="0" via=":J21_0_0" dir="s" state="M"/>
    <connection from="edge0" to="edge1" fromLane="1" toLane="1" via=":J21_0_1" dir="s" state="M"/>
    <connection from="edge1" to="edge3" fromLane="0" toLane="0" via=":J22_0_0" dir="r" state="M"/>
    <connection from="edge1" to="edge3" fromLane="1" toLane="1" via=":J22_0_1" dir="r" state="M"/>
    <connection from="edge10" to="edge9" fromLane="0" toLane="0" via=":J34_0_0" dir="l" state="M"/>
    <connection from="edge10" to="edge9" fromLane="1" toLane="1" via=":J34_0_1" dir="l" state="M"/>
    <connection from="edge11" to="edge10" fromLane="0" toLane="0" via=":J33_0_0" dir="s" state="M"/>
    <connection from="edge11" to="edge10" fromLane="1" toLane="1" via=":J33_0_1" dir="s" state="M"/>
    <connection from="edge12" to="edge11" fromLane="0" toLane="0" via=":J32_0_0" dir="l" state="M"/>
    <connection from="edge12" to="edge11" fromLane="1" toLane="1" via=":J32_0_1" dir="l" state="M"/>
    <connection from="edge13" to="edge12" fromLane="0" toLane="0" via=":J31_0_0" dir="s" state="M"/>
    <connection from="edge13" to="edge12" fromLane="1" toLane="1" via=":J31_0_1" dir="s" state="M"/>
    <connection from="edge14" to="edge13" fromLane="0" toLane="0" via=":J30_0_0" dir="s" state="M"/>
    <connection from="edge14" to="edge13" fromLane="1" toLane="1" via=":J30_0_1" dir="s" state="M"/>
    <connection from="edge15" to="edge14" fromLane="0" toLane="0" via=":J29_0_0" dir="l" state="M"/>
    <connection from="edge15" to="edge14" fromLane="1" toLane="1" via=":J29_0_1" dir="l" state="M"/>
    <connection from="edge16" to="edge15" fromLane="0" toLane="0" via=":J28_0_0" dir="l" state="M"/>
    <connection from="edge16" to="edge15" fromLane="1" toLane="1" via=":J28_0_1" dir="l" state="M"/>
    <connection from="edge3" to="edge4" fromLane="0" toLane="0" via=":J23_0_0" dir="r" state="M"/>
    <connection from="edge3" to="edge4" fromLane="1" toLane="1" via=":J23_0_1" dir="r" state="M"/>
    <connection from="edge4" to="edge5" fromLane="0" toLane="0" via=":J24_0_0" dir="s" state="M"/>
    <connection from="edge4" to="edge5" fromLane="1" toLane="1" via=":J24_0_1" dir="s" state="M"/>
    <connection from="edge5" to="edge6" fromLane="0" toLane="0" via=":J25_0_0" dir="s" state="M"/>
    <connection from="edge5" to="edge6" fromLane="1" toLane="1" via=":J25_0_1" dir="s" state="M"/>
    <connection from="edge5" to="edge16" fromLane="1" toLane="0" via=":J25_2_0" dir="L" state="M"/>
    <connection from="edge5" to="edge16" fromLane="1" toLane="1" via=":J25_2_1" dir="L" state="M"/>
    <connection from="edge6" to="edge7" fromLane="0" toLane="0" via=":J26_0_0" dir="r" state="M"/>
    <connection from="edge6" to="edge7" fromLane="1" toLane="1" via=":J26_0_1" dir="r" state="M"/>
    <connection from="edge7" to="edge8" fromLane="0" toLane="0" via=":J27_0_0" dir="r" state="M"/>
    <connection from="edge7" to="edge8" fromLane="1" toLane="1" via=":J27_0_1" dir="r" state="M"/>
    <connection from="edge8" to="edge0" fromLane="0" toLane="0" via=":J20_0_0" dir="r" state="M"/>
    <connection from="edge8" to="edge0" fromLane="1" toLane="1" via=":J20_0_1" dir="r" state="M"/>
    <connection from="edge9" to="edge5" fromLane="0" toLane="0" via=":J24_2_0" dir="s" state="m"/>
    <connection from="edge9" to="edge5" fromLane="1" toLane="1" via=":J24_2_1" dir="s" state="m"/>

    <connection from=":J20_0" to="edge0" fromLane="0" toLane="0" dir="r" state="M"/>
    <connection from=":J20_0" to="edge0" fromLane="1" toLane="1" dir="r" state="M"/>
    <connection from=":J21_0" to="edge1" fromLane="0" toLane="0" dir="s" state="M"/>
    <connection from=":J21_0" to="edge1" fromLane="1" toLane="1" dir="s" state="M"/>
    <connection from=":J22_0" to="edge3" fromLane="0" toLane="0" dir="r" state="M"/>
    <connection from=":J22_0" to="edge3" fromLane="1" toLane="1" dir="r" state="M"/>
    <connection from=":J23_0" to="edge4" fromLane="0" toLane="0" dir="r" state="M"/>
    <connection from=":J23_0" to="edge4" fromLane="1" toLane="1" dir="r" state="M"/>
    <connection from=":J24_0" to="edge5" fromLane="0" toLane="0" dir="s" state="M"/>
    <connection from=":J24_0" to="edge5" fromLane="1" toLane="1" dir="s" state="M"/>
    <connection from=":J24_2" to="edge5" fromLane="0" toLane="0" dir="s" state="M"/>
    <connection from=":J24_2" to="edge5" fromLane="1" toLane="1" dir="s" state="M"/>
    <connection from=":J25_0" to="edge6" fromLane="0" toLane="0" dir="s" state="M"/>
    <connection from=":J25_0" to="edge6" fromLane="1" toLane="1" dir="s" state="M"/>
    <connection from=":J25_2" to="edge16" fromLane="0" toLane="0" dir="L" state="M"/>
    <connection from=":J25_2" to="edge16" fromLane="1" toLane="1" dir="L" state="M"/>
    <connection from=":J26_0" to="edge7" fromLane="0" toLane="0" dir="r" state="M"/>
    <connection from=":J26_0" to="edge7" fromLane="1" toLane="1" dir="r" state="M"/>
    <connection from=":J27_0" to="edge8" fromLane="0" toLane="0" dir="r" state="M"/>
    <connection from=":J27_0" to="edge8" fromLane="1" toLane="1" dir="r" state="M"/>
    <connection from=":J28_0" to="edge15" fromLane="0" toLane="0" dir="l" state="M"/>
    <connection from=":J28_0" to="edge15" fromLane="1" toLane="1" dir="l" state="M"/>
    <connection from=":J29_0" to="edge14" fromLane="0" toLane="0" dir="l" state="M"/>
    <connection from=":J29_0" to="edge14" fromLane="1" toLane="1" dir="l" state="M"/>
    <connection from=":J30_0" to="edge13" fromLane="0" toLane="0" dir="s" state="M"/>
    <connection from=":J30_0" to="edge13" fromLane="1" toLane="1" dir="s" state="M"/>
    <connection from=":J31_0" to="edge12" fromLane="0" toLane="0" dir="s" state="M"/>
    <connection from=":J31_0" to="edge12" fromLane="1" toLane="1" dir="s" state="M"/>
    <connection from=":J32_0" to="edge11" fromLane="0" toLane="0" dir="l" state="M"/>
    <connection from=":J32_0" to="edge11" fromLane="1" toLane="1" dir="l" state="M"/>
    <connection from=":J33_0" to="edge10" fromLane="0" toLane="0" dir="s" state="M"/>
    <connection from=":J33_0" to="edge10" fromLane="1" toLane="1" dir="s" state="M"/>
    <connection from=":J34_0" to="edge9" fromLane="0" toLane="0" dir="l" state="M"/>
    <connection from=":J34_0" to="edge9" fromLane="1" toLane="1" dir="l" state="M"/>

</net>
