<?xml version="1.0" encoding="UTF-8"?>

<!-- generated on 2022-09-29 10:44:49 by Eclipse SUMO netedit Version 1.14.1
-->

<additional xmlns:xsi="http://www.w3.org/2001/XMLSchema-instance" xsi:noNamespaceSchemaLocation="http://sumo.dlr.de/xsd/additional_file.xsd">
    <!-- Other additionals -->
    <rerouter id="rr_0" edges="edge2" pos="86.73,61.97">
        <interval begin="0.00" end="3600.00">
            <destProbReroute id="edge1" probability="1.00"/>
        </interval>
    </rerouter>

     <rerouter id="rr_1" edges="edge1">
        <interval begin="0.00" end="3600.00">
            <destProbReroute id="edge2" probability="1.00"/>
        </interval>
    </rerouter>
</additional>
