<?xml version="1.0" encoding="UTF-8"?>

<!-- generated on 2022-09-29 10:29:33 by Eclipse SUMO netedit Version 1.14.1
-->

<routes xmlns:xsi="http://www.w3.org/2001/XMLSchema-instance" xsi:noNamespaceSchemaLocation="http://sumo.dlr.de/xsd/routes_file.xsd">
    <!-- Routes -->
    <route id="r_0" edges="edge1 edge2"/>
    <!-- Vehicles, persons and containers (sorted by depart) -->
    <flow id="f_0" type="DEFAULT_CONTAINERTYPE" begin="0.00" route="r_0" end="0.00" number="5"/>
</routes>
