<?xml version="1.0" encoding="UTF-8"?>

<!-- generated on 2022-09-29 10:10:45 by Eclipse SUMO netedit Version 1.14.1
<configuration xmlns:xsi="http://www.w3.org/2001/XMLSchema-instance" xsi:noNamespaceSchemaLocation="http://sumo.dlr.de/xsd/netconvertConfiguration.xsd">

    <output>
        <output-file value="C:\Users\Giuseppe\Desktop\Sumo%20Tutorials\Tutorial%203.1%20-%20Rerouting%20using%20NetEdit\network1_3.net.xml"/>
    </output>

    <processing>
        <offset.disable-normalization value="true"/>
    </processing>

    <junctions>
        <no-turnarounds value="true"/>
    </junctions>

    <netedit>
        <route-files value="C:\Users\Giuseppe\Desktop\Sumo%20Tutorials\Tutorial%203.1%20-%20Rerouting%20using%20NetEdit\elem_rout.rou.xml"/>
    </netedit>

</configuration>
-->

<net version="1.9" junctionCornerDetail="5" limitTurnSpeed="5.50" xmlns:xsi="http://www.w3.org/2001/XMLSchema-instance" xsi:noNamespaceSchemaLocation="http://sumo.dlr.de/xsd/net_file.xsd">

    <location netOffset="0.00,0.00" convBoundary="31.58,24.03,92.24,82.06" origBoundary="10000000000.00,10000000000.00,-10000000000.00,-10000000000.00" projParameter="!"/>

    <edge id=":J0_0" function="internal">
        <lane id=":J0_0_0" index="0" speed="4.11" length="1.42" shape="33.26,55.15 33.28,55.51 33.37,55.85 33.54,56.15 33.78,56.42"/>
    </edge>
    <edge id=":J1_0" function="internal">
        <lane id=":J1_0_0" index="0" speed="3.93" length="2.16" shape="58.77,79.18 59.24,79.51 59.73,79.64 60.23,79.58 60.75,79.32"/>
    </edge>
    <edge id=":J2_0" function="internal">
        <lane id=":J2_0_0" index="0" speed="4.13" length="1.38" shape="85.97,62.18 86.24,61.95 86.45,61.69 86.59,61.38 86.66,61.03"/>
    </edge>
    <edge id=":J3_0" function="internal">
        <lane id=":J3_0_0" index="0" speed="3.90" length="2.77" shape="90.27,28.06 90.24,27.29 89.97,26.74 89.46,26.40 88.70,26.28"/>
    </edge>
    <edge id=":J4_0" function="internal">
        <lane id=":J4_0_0" index="0" speed="3.91" length="2.50" shape="36.42,25.67 35.75,25.75 35.25,26.04 34.94,26.51 34.81,27.18"/>
    </edge>

    <edge id="edge1" from="J0" to="J1" priority="-1">
        <lane id="edge1_0" index="0" speed="13.89" length="33.80" shape="33.78,56.42 58.77,79.18"/>
    </edge>
    <edge id="edge2" from="J1" to="J2" priority="-1">
        <lane id="edge2_0" index="0" speed="13.89" length="30.50" shape="60.75,79.32 85.97,62.18"/>
    </edge>
    <edge id="edge3" from="J2" to="J3" priority="-1">
        <lane id="edge3_0" index="0" speed="13.89" length="33.17" shape="86.66,61.03 90.27,28.06"/>
    </edge>
    <edge id="edge4" from="J3" to="J4" priority="-1">
        <lane id="edge4_0" index="0" speed="13.89" length="52.28" shape="88.70,26.28 36.42,25.67"/>
    </edge>
    <edge id="edge5" from="J4" to="J0" priority="-1">
        <lane id="edge5_0" index="0" speed="13.89" length="28.01" shape="34.81,27.18 33.26,55.15"/>
    </edge>

    <junction id="J0" type="priority" x="31.58" y="56.58" incLanes="edge5_0" intLanes=":J0_0_0" shape="32.70,57.60 34.86,55.24 31.66,55.06 31.74,56.02 31.88,56.46 32.09,56.87 32.36,57.25">
        <request index="0" response="0" foes="0" cont="0"/>
    </junction>
    <junction id="J1" type="priority" x="59.56" y="82.06" incLanes="edge1_0" intLanes=":J1_0_0" shape="61.64,80.64 59.85,78.00 57.69,80.36 58.96,81.15 59.61,81.28 60.28,81.24 60.95,81.03">
        <request index="0" response="0" foes="0" cont="0"/>
    </junction>
    <junction id="J2" type="priority" x="88.09" y="62.67" incLanes="edge2_0" intLanes=":J2_0_0" shape="88.25,61.20 85.07,60.86 86.87,63.50 87.56,62.88 87.82,62.51 88.02,62.11 88.17,61.68">
        <request index="0" response="0" foes="0" cont="0"/>
    </junction>
    <junction id="J3" type="priority" x="92.24" y="24.72" incLanes="edge3_0" intLanes=":J3_0_0" shape="88.72,24.68 88.68,27.88 91.86,28.23 91.68,26.28 91.27,25.59 90.63,25.09 89.78,24.79">
        <request index="0" response="0" foes="0" cont="0"/>
    </junction>
    <junction id="J4" type="priority" x="33.38" y="24.03" incLanes="edge4_0" intLanes=":J4_0_0" shape="36.41,27.27 36.44,24.07 34.72,24.39 34.10,24.80 33.64,25.39 33.35,26.16 33.21,27.09">
        <request index="0" response="0" foes="0" cont="0"/>
    </junction>

    <connection from="edge1" to="edge2" fromLane="0" toLane="0" via=":J1_0_0" dir="r" state="M"/>
    <connection from="edge2" to="edge3" fromLane="0" toLane="0" via=":J2_0_0" dir="r" state="M"/>
    <connection from="edge3" to="edge4" fromLane="0" toLane="0" via=":J3_0_0" dir="r" state="M"/>
    <connection from="edge4" to="edge5" fromLane="0" toLane="0" via=":J4_0_0" dir="r" state="M"/>
    <connection from="edge5" to="edge1" fromLane="0" toLane="0" via=":J0_0_0" dir="r" state="M"/>

    <connection from=":J0_0" to="edge1" fromLane="0" toLane="0" dir="r" state="M"/>
    <connection from=":J1_0" to="edge2" fromLane="0" toLane="0" dir="r" state="M"/>
    <connection from=":J2_0" to="edge3" fromLane="0" toLane="0" dir="r" state="M"/>
    <connection from=":J3_0" to="edge4" fromLane="0" toLane="0" dir="r" state="M"/>
    <connection from=":J4_0" to="edge5" fromLane="0" toLane="0" dir="r" state="M"/>

</net>
