<?xml version="1.0" encoding="UTF-8"?>

<configuration xmlns:xsi="http://www.w3.org/2001/XMLSchema-instance" xsi:noNamespaceSchemaLocation="http://sumo.dlr.de/xsd/sumoConfiguration.xsd">
<input>
       <net-file value="../Tutorial 3.1 - Rerouting using NetEdit/network.net.xml"/>
       <route-files value="../Tutorial 3.1 - Rerouting using NetEdit/elem.rou.xml"/>
       <additional-files value="additional.add.xml"/>
</input>
</configuration>