<?xml version="1.0" encoding="UTF-8"?>

<!-- generated on 2022-09-28 16:15:27 by Eclipse SUMO netedit Version 1.14.1
<configuration xmlns:xsi="http://www.w3.org/2001/XMLSchema-instance" xsi:noNamespaceSchemaLocation="http://sumo.dlr.de/xsd/netconvertConfiguration.xsd">

    <input>
        <sumo-net-file value="network1_3.net.xml"/>
    </input>

    <output>
        <output-file value="network1_3.net.xml"/>
    </output>

    <processing>
        <geometry.min-radius.fix.railways value="false"/>
        <geometry.max-grade.fix value="false"/>
        <offset.disable-normalization value="true"/>
        <lefthand value="false"/>
    </processing>

    <junctions>
        <no-internal-links value="true"/>
        <no-turnarounds value="true"/>
        <junctions.corner-detail value="5"/>
        <junctions.limit-turn-speed value="5.5"/>
        <rectangular-lane-cut value="false"/>
    </junctions>

    <pedestrian>
        <walkingareas value="false"/>
    </pedestrian>

    <netedit>
        <route-files value="C:\Users\Giuseppe\Desktop\Sumo%20Tutorials\Tutorial%202\routing.rou.xml"/>
    </netedit>

</configuration>
-->

<net version="1.9" junctionCornerDetail="5" limitTurnSpeed="5.50" xmlns:xsi="http://www.w3.org/2001/XMLSchema-instance" xsi:noNamespaceSchemaLocation="http://sumo.dlr.de/xsd/net_file.xsd">

    <location netOffset="0.00,0.00" convBoundary="-1023.08,973.88,-500.00,1138.40" origBoundary="-10000000000.00,-10000000000.00,10000000000.00,10000000000.00" projParameter="!"/>

    <edge id="-E13" from="6" to="1" priority="-1">
        <lane id="-E13_0" index="0" speed="13.89" length="300.00" shape="-500.00,1001.60 -794.74,1001.60"/>
    </edge>
    <edge id="-E14" from="1" to="91" priority="3">
        <lane id="-E14_0" index="0" speed="13.89" length="199.84" shape="-819.06,1008.00 -999.44,1008.05"/>
        <lane id="-E14_1" index="1" speed="13.89" length="199.84" shape="-819.06,1004.80 -999.44,1004.85"/>
        <lane id="-E14_2" index="2" speed="13.89" length="199.84" shape="-819.06,1001.60 -999.44,1001.65"/>
    </edge>
    <edge id="-E15" from="1" to="J2" priority="-1">
        <lane id="-E15_0" index="0" speed="13.89" length="203.53" shape="-814.73,1015.84 -948.14,1139.57"/>
    </edge>
    <edge id="E13" from="1" to="6" priority="3">
        <lane id="E13_0" index="0" speed="13.89" length="300.00" shape="-794.74,998.40 -500.00,998.40"/>
    </edge>
    <edge id="E14" from="91" to="1" priority="-1">
        <lane id="E14_0" index="0" speed="13.89" length="199.84" shape="-999.45,995.25 -819.06,995.20"/>
        <lane id="E14_1" index="1" speed="13.89" length="199.84" shape="-999.44,998.45 -819.06,998.40"/>
    </edge>
    <edge id="E15" from="J2" to="1" priority="-1">
        <lane id="E15_0" index="0" speed="13.89" length="203.53" shape="-950.32,1137.23 -816.91,1013.50"/>
    </edge>
    <edge id="E16" from="J3" to="91" priority="-1">
        <lane id="E16_0" index="0" speed="13.89" length="35.00" shape="-1021.88,972.82 -1003.63,993.37"/>
    </edge>

    <junction id="1" type="priority" x="-800.00" y="1000.00" incLanes="-E13_0 E14_0 E14_1 E15_0" intLanes="" shape="-794.74,1003.20 -794.74,996.80 -799.95,996.56 -803.78,995.97 -810.03,994.43 -813.86,993.84 -819.07,993.60 -819.06,1009.60 -817.16,1009.91 -816.79,1010.28 -816.81,1010.81 -817.21,1011.49 -817.99,1012.32 -813.64,1017.02 -810.08,1013.23 -807.53,1009.90 -805.36,1007.12 -802.94,1005.01 -799.61,1003.67">
        <request index="0" response="000" foes="100"/> <!--Verdi-->
        <request index="1" response="000" foes="100"/> <!--Blue-->
        <request index="2" response="011" foes="011"/> 
    </junction>
    <junction id="6" type="dead_end" x="-500.00" y="1000.00" incLanes="E13_0" intLanes="" shape="-500.00,1000.00 -500.00,996.80 -500.00,1000.00"/>
    <junction id="91" type="priority" x="-999.84" y="1000.05" incLanes="-E14_0 -E14_1 -E14_2 E16_0" intLanes="" shape="-999.44,1009.65 -999.45,993.65 -1000.58,993.50 -1001.09,993.31 -1001.57,993.05 -1002.02,992.72 -1002.44,992.31 -1004.83,994.43 -1000.93,999.08 -998.23,1002.88 -996.73,1005.84 -996.43,1007.96 -997.33,1009.23">
        <request index="0" response="00" foes="00"/>
        <request index="1" response="00" foes="00"/>
    </junction>
    <junction id="J2" type="dead_end" x="-949.23" y="1138.40" incLanes="-E15_0" intLanes="" shape="-949.23,1138.40 -947.05,1140.75 -949.23,1138.40"/>
    <junction id="J3" type="dead_end" x="-1023.08" y="973.88" incLanes="" intLanes="" shape="-1023.08,973.88 -1020.69,971.76"/>

    <connection from="-E13" to="-E15" fromLane="0" toLane="0" dir="R" state="M"/>
    <connection from="E14" to="E13" fromLane="1" toLane="0" dir="s" state="M"/>
    <connection from="E14" to="-E15" fromLane="1" toLane="0" dir="l" state="m"/>
    <connection from="E16" to="E14" fromLane="0" toLane="0" dir="r" state="M"/>
    <connection from="E16" to="E14" fromLane="0" toLane="1" dir="r" state="M"/>

</net>
