<?xml version="1.0" encoding="UTF-8"?>

<!-- generated on 2022-09-28 16:15:28 by Eclipse SUMO netedit Version 1.14.1
-->

<routes xmlns:xsi="http://www.w3.org/2001/XMLSchema-instance" xsi:noNamespaceSchemaLocation="http://sumo.dlr.de/xsd/routes_file.xsd">
    <!-- Routes -->
    <route id="r_0" edges="E14 -E15"/>
    <route id="r_1" edges="-E13 -E15"/>
    <route id="r_2" edges="E14 E13"/>
    <!-- Vehicles, persons and containers (sorted by depart) -->
    <vehicle id="v_0" depart="0.00" color="red" route="r_0"/>
    <vehicle id="v_00" depart="0.00" color="red" route="r_0"/>
    <vehicle id="v_000" depart="0.00" color="red" route="r_0"/>
    <vehicle id="v_0000" depart="0.00" color="red" route="r_0"/>
    <vehicle id="v_00000" depart="0.00" color="red" route="r_0"/>
    
    <vehicle id="v_1" depart="0.00" color="blue" route="r_1"/>
    <vehicle id="v_11" depart="0.00" color="blue" route="r_1"/>
    <vehicle id="v_111" depart="0.00" color="blue" route="r_1"/>
    <vehicle id="v_1111" depart="0.00" color="blue" route="r_1"/>
    <vehicle id="v_11111" depart="0.00" color="blue" route="r_1"/>
    
    <vehicle id="v_2" depart="0.00" color="green" route="r_2"/>
</routes>
