<?xml version="1.0" encoding="UTF-8"?>

<!-- generated on 2022-09-27 20:19:09 by Eclipse SUMO GUI Version 1.14.1
-->

<configuration xmlns:xsi="http://www.w3.org/2001/XMLSchema-instance" xsi:noNamespaceSchemaLocation="http://sumo.dlr.de/xsd/sumoConfiguration.xsd">

    <input>
        <net-file value="../Tutorial 1 - GUI/network.net.xml"/>
        <route-files value="../Tutorial 1 - GUI/routing3.rou.xml"/>
    </input>

</configuration>
