<?xml version="1.0" encoding="UTF-8"?>

<!-- generated on 2022-09-28 13:56:55 by Eclipse SUMO netedit Version 1.14.1
<configuration xmlns:xsi="http://www.w3.org/2001/XMLSchema-instance" xsi:noNamespaceSchemaLocation="http://sumo.dlr.de/xsd/netconvertConfiguration.xsd">

    <input>
        <sumo-net-file value="helloWorld.net.xml"/>
    </input>

    <output>
        <output-file value="helloWorld.net.xml"/>
    </output>

    <processing>
        <geometry.min-radius.fix.railways value="false"/>
        <geometry.max-grade.fix value="false"/>
        <offset.disable-normalization value="true"/>
        <lefthand value="false"/>
    </processing>

    <junctions>
        <no-turnarounds value="true"/>
        <junctions.corner-detail value="5"/>
        <junctions.limit-turn-speed value="5.5"/>
        <rectangular-lane-cut value="false"/>
    </junctions>

    <pedestrian>
        <walkingareas value="false"/>
    </pedestrian>

</configuration>
-->

<net version="1.9" junctionCornerDetail="5" limitTurnSpeed="5.50" xmlns:xsi="http://www.w3.org/2001/XMLSchema-instance" xsi:noNamespaceSchemaLocation="http://sumo.dlr.de/xsd/net_file.xsd">

    <location netOffset="0.00,0.00" convBoundary="-50.00,49.44,34.37,100.00" origBoundary="-10000000000.00,-10000000000.00,10000000000.00,10000000000.00" projParameter="!"/>

    <edge id=":2_0" function="internal">
        <lane id=":2_0_0" index="0" speed="7.34" length="11.62" shape="-4.80,53.94 -4.25,51.54 -2.61,49.81 0.12,48.74 3.94,48.34"/>
    </edge>
    <edge id=":2_1" function="internal">
        <lane id=":2_1_0" index="0" speed="13.89" length="14.27" shape="-10.33,48.34 3.94,48.34"/>
    </edge>

    <edge id="-E1" from="3" to="2" priority="-1" length="50.00">
        <lane id="-E1_0" index="0" speed="13.89" length="50.00" shape="-49.99,48.13 -10.33,48.34"/>
    </edge>
    <edge id="E0" from="1" to="2" priority="-1" length="50.00">
        <lane id="E0_0" index="0" speed="13.89" length="50.00" shape="-4.80,100.00 -4.80,53.94"/>
        <lane id="E0_1" index="1" speed="13.89" length="50.00" shape="-1.60,100.00 -1.60,53.94"/>
    </edge>
    <edge id="E2" from="2" to="J0" priority="-1">
        <lane id="E2_0" index="0" speed="13.89" length="30.40" shape="3.94,48.34 34.34,47.84"/>
    </edge>

    <junction id="1" type="dead_end" x="0.00" y="100.00" incLanes="" intLanes="" shape="-0.00,100.00 -6.40,100.00"/>
    <junction id="2" type="priority" x="0.00" y="50.00" incLanes="E0_0 E0_1 -E1_0" intLanes=":2_0_0 :2_1_0" shape="-6.40,53.94 -0.00,53.94 0.44,51.74 0.99,50.97 1.76,50.41 2.76,50.06 3.97,49.94 3.92,46.74 -10.32,46.74 -10.34,49.94 -8.15,50.40 -7.38,50.95 -6.84,51.73 -6.51,52.72">
        <request index="0" response="10" foes="10" cont="0"/> <!--Gialle-->
        <request index="1" response="00" foes="01" cont="0"/> <!--Rosse-->
    </junction>
    <junction id="3" type="dead_end" x="-50.00" y="49.73" incLanes="" intLanes="" shape="-50.00,49.73 -49.98,46.53"/>
    <junction id="J0" type="dead_end" x="34.37" y="49.44" incLanes="E2_0" intLanes="" shape="34.32,46.24 34.37,49.44"/>

    <connection from="-E1" to="E2" fromLane="0" toLane="0" via=":2_1_0" dir="s" state="m"/>
    <connection from="E0" to="E2" fromLane="0" toLane="0" via=":2_0_0" dir="l" state="M"/>

    <connection from=":2_0" to="E2" fromLane="0" toLane="0" dir="l" state="M"/>
    <connection from=":2_1" to="E2" fromLane="0" toLane="0" dir="s" state="M"/>

</net>
