<?xml version="1.0" encoding="UTF-8"?>

<!-- generated on 2022-09-28 14:26:01 by Eclipse SUMO netedit Version 1.14.1
-->

<routes xmlns:xsi="http://www.w3.org/2001/XMLSchema-instance" xsi:noNamespaceSchemaLocation="http://sumo.dlr.de/xsd/routes_file.xsd">
    <!-- Routes -->
    <route id="r_0" edges="-E1 E2"/>
    <route id="r_1" edges="E0 E2"/>
    <!-- Vehicles, persons and containers (sorted by depart) -->
    <vehicle id="v_0" depart="0.00" route="r_1"/>
    <vehicle id="v_1" depart="0.00" color="red" route="r_0"/>
    <vehicle id="v_10" depart="0.00" route="r_1"/>
    <vehicle id="v_2" depart="0.00" color="red" route="r_0"/>
    <vehicle id="v_3" depart="0.00" color="red" route="r_0"/>
    <vehicle id="v_4" depart="0.00" color="red" route="r_0"/>
    <vehicle id="v_5" depart="0.00" color="red" route="r_0"/>
    <vehicle id="v_6" depart="0.00" route="r_1"/>
    <vehicle id="v_7" depart="0.00" route="r_1"/>
    <vehicle id="v_8" depart="0.00" route="r_1"/>
    <vehicle id="v_9" depart="0.00" route="r_1"/>
</routes>
