<?xml version='1.0' encoding='utf-8'?>
<routes>
	<trip id="2404" from="84823308" to="-33789567" depart="18000" />
	<trip id="3302" from="31129765" to="8922291#0" depart="18000" />
	<trip id="3770" from="142972028#1" to="283537380#0" depart="18000" />
	<trip id="4055" from="-133781749" to="-27397692" depart="18000" />
	<trip id="4181" from="142972028#1" to="8916922#1" depart="18000" />
	<trip id="4802" from="-23883760" to="283537380#1" depart="18000" />
	<trip id="4888" from="225806031#0" to="8922307" depart="18000" />
	<trip id="5221" from="224384035#0" to="8921849#2" depart="18000" />
	<trip id="5355" from="31129765" to="30831808#0" depart="18000" />
	<trip id="5398" from="23959829#0" to="143617589#0" depart="18000" />
	<trip id="6422" from="90077241" to="91181771#0" depart="18000" />
	<trip id="6466" from="225806031#0" to="99231482" depart="18000" />
	<trip id="6644" from="-23883761" to="364480601#0" depart="18000" />
	<trip id="6953" from="90077241" to="91181771#5" depart="18000" />
	<trip id="7473" from="8916767#0" to="8915752" depart="18000" />
	<trip id="7871" from="-24310636#2" to="254299142#3" depart="18000" />
	<trip id="7877" from="90077241" to="-225518512#1" depart="18000" />
	<trip id="7879" from="224384035#0" to="225518512#0" depart="18000" />
	<trip id="7891" from="8916792" to="8916922#0" depart="18000" />
	<trip id="8247" from="254396707#6" to="47172745" depart="18000" />
	<trip id="8275" from="123867455" to="91181771#5" depart="18000" />
	<trip id="8619" from="27167762" to="35675861#1" depart="18000" />
	<trip id="9132" from="27398045#1" to="8916922#1" depart="18000" />
	<trip id="9774" from="133733582#2" to="8919338" depart="18000" />
	<trip id="9905" from="123867455" to="p4#0" depart="18000" />
	<trip id="10444" from="-23883761" to="99231468#0" depart="18000" />
	<trip id="10775" from="-24310636#2" to="27054213#6" depart="18000" />
	<trip id="11119" from="-8916048" to="179235223" depart="18000" />
	<trip id="11317" from="90077241" to="-8919616#1" depart="18000" />
	<trip id="11337" from="-35977367#2" to="224199014#0" depart="18000" />
	<trip id="11567" from="-91181760#0" to="206662304#13" depart="18000" />
	<trip id="11582" from="123867455" to="111089307#4" depart="18000" />
	<trip id="11994" from="84823308" to="32931798#1" depart="18000" />
	<trip id="12781" from="144489137#0" to="224316522#0" depart="18000" />
	<trip id="13861" from="-133755930#1" to="133733593#1" depart="18000" />
	<trip id="14823" from="191296172#0" to="47108420#4" depart="18000" />
	<trip id="15519" from="123867455" to="255330036#11" depart="18000" />
	<trip id="15834" from="27398045#1" to="-225518512#1" depart="18000" />
	<trip id="16672" from="142972028#1" to="-p3#1" depart="18000" />
	<trip id="17642" from="31129765" to="-88559661#0" depart="18000" />
	<trip id="18086" from="-206679802#4" to="-144489136" depart="18000" />
	<trip id="18185" from="144489137#0" to="88597553#2" depart="18000" />
	<trip id="18266" from="31129765" to="-99231475" depart="18000" />
	<trip id="18330" from="123867455" to="26988030#2" depart="18000" />
	<trip id="805" from="8915254" to="-254971068" depart="18060" />
	<trip id="1657" from="31129765" to="-43100739" depart="18060" />
	<trip id="3000" from="27388400#0" to="206662304#13" depart="18060" />
	<trip id="3693" from="90077241" to="225432462#0" depart="18060" />
	<trip id="4185" from="86303763#0" to="225518512#0" depart="18060" />
	<trip id="4523" from="31129765" to="31129732#0" depart="18060" />
	<trip id="4545" from="254396707#6" to="27054213#4" depart="18060" />
	<trip id="4845" from="8915254" to="8916922#3" depart="18060" />
	<trip id="5012" from="30029172#0" to="154966358" depart="18060" />
	<trip id="5045" from="-27029200#2" to="-242896157#0" depart="18060" />
	<trip id="5662" from="-27570802#1" to="-8917425" depart="18060" />
	<trip id="5706" from="-204967525" to="8915752" depart="18060" />
	<trip id="6083" from="31129765" to="35675861#1" depart="18060" />
	<trip id="6508" from="111089307#0" to="8916922#0" depart="18060" />
	<trip id="7712" from="90077241" to="204884121" depart="18060" />
	<trip id="8374" from="-27029200#2" to="88466052#0" depart="18060" />
	<trip id="10512" from="8916792" to="247966218#3" depart="18060" />
	<trip id="11949" from="8916767#0" to="-37177689#5" depart="18060" />
	<trip id="12698" from="90077241" to="254306572#0" depart="18060" />
	<trip id="13227" from="-204967525" to="224199018#4" depart="18060" />
	<trip id="14079" from="28319343#2" to="50690291#1" depart="18060" />
	<trip id="15224" from="-27029204" to="111319423" depart="18060" />
	<trip id="15712" from="-206662304#13" to="99231463#0" depart="18060" />
	<trip id="15981" from="-24310636#2" to="35675861#0" depart="18060" />
	<trip id="16753" from="27167762" to="35675861#0" depart="18060" />
	<trip id="17329" from="-206679802#4" to="35675861#1" depart="18060" />
	<trip id="1720" from="255330036#13" to="24310636#2" depart="18120" />
	<trip id="2228" from="52432938#0" to="50690291#1" depart="18120" />
	<trip id="2380" from="224316521#3" to="91181767" depart="18120" />
	<trip id="2507" from="-204967525" to="254758122#4" depart="18120" />
	<trip id="2648" from="144489137#0" to="-8918039#1" depart="18120" />
	<trip id="3455" from="-254297762#2" to="-47108420#2" depart="18120" />
	<trip id="3522" from="225806031#0" to="-25371463" depart="18120" />
	<trip id="4216" from="90077241" to="91181771#0" depart="18120" />
	<trip id="4563" from="-27570786#2" to="99231463#0" depart="18120" />
	<trip id="4794" from="-24310636#2" to="-35675861#0" depart="18120" />
	<trip id="4955" from="-23883760" to="8916922#0" depart="18120" />
	<trip id="6319" from="-133781749" to="88463830" depart="18120" />
	<trip id="6870" from="-133781749" to="8922858#0" depart="18120" />
	<trip id="7625" from="31129765" to="91181771#0" depart="18120" />
	<trip id="8771" from="90077241" to="24335490#0" depart="18120" />
	<trip id="10789" from="90077241" to="242896157#1" depart="18120" />
	<trip id="11572" from="-35977367#2" to="26938124#4" depart="18120" />
	<trip id="12299" from="254396707#6" to="99231460" depart="18120" />
	<trip id="12843" from="31129765" to="-8922307" depart="18120" />
	<trip id="14413" from="31129765" to="254306572#0" depart="18120" />
	<trip id="14712" from="-254758120#3" to="8919328#0" depart="18120" />
	<trip id="15301" from="144489137#0" to="225518502#3" depart="18120" />
	<trip id="17297" from="-27167281#1" to="8922560#3" depart="18120" />
	<trip id="17455" from="-254758121#2" to="204967525" depart="18120" />
	<trip id="18646" from="254758124#0" to="50690291#1" depart="18120" />
	<trip id="2609" from="123867455" to="228186482#0" depart="18180" />
	<trip id="3457" from="90077241" to="-204884121" depart="18180" />
	<trip id="3621" from="142972028#1" to="-202485361#1" depart="18180" />
	<trip id="4061" from="-254297762#2" to="283537552#0" depart="18180" />
	<trip id="4712" from="-27029204" to="-88559691#6" depart="18180" />
	<trip id="6399" from="90077241" to="8916922#3" depart="18180" />
	<trip id="7765" from="224384035#0" to="120256350#3" depart="18180" />
	<trip id="7801" from="225806031#0" to="88466052#1" depart="18180" />
	<trip id="8074" from="224384035#0" to="-364480069" depart="18180" />
	<trip id="8309" from="8915254" to="-283537552#0" depart="18180" />
	<trip id="8757" from="8915254" to="91181771#3" depart="18180" />
	<trip id="10625" from="-206679802#4" to="255330036#9" depart="18180" />
	<trip id="11753" from="-206662304#13" to="111319423" depart="18180" />
	<trip id="12043" from="8916792" to="91181774#0" depart="18180" />
	<trip id="12593" from="191296172#0" to="99231482" depart="18180" />
	<trip id="13953" from="-24310636#2" to="-8917425" depart="18180" />
	<trip id="16444" from="-133755930#1" to="133733593#1" depart="18180" />
	<trip id="18357" from="31129765" to="287958606#0" depart="18180" />
	<trip id="294" from="225806031#0" to="143617589#0" depart="18240" />
	<trip id="2087" from="-254758120#3" to="228202845#2" depart="18240" />
	<trip id="2398" from="90077241" to="254756520#0" depart="18240" />
	<trip id="2904" from="48211196#5" to="-8916792" depart="18240" />
	<trip id="4672" from="27167762" to="329607867" depart="18240" />
	<trip id="7533" from="8915254" to="278995391#0" depart="18240" />
	<trip id="9630" from="8916767#0" to="-254466686#4" depart="18240" />
	<trip id="10190" from="86303763#0" to="-283537552#0" depart="18240" />
	<trip id="12381" from="142972028#1" to="254971067#0" depart="18240" />
	<trip id="12753" from="111089307#0" to="224373753" depart="18240" />
	<trip id="14439" from="31129765" to="-99231475" depart="18240" />
	<trip id="15047" from="254396707#6" to="283537552#0" depart="18240" />
	<trip id="15397" from="-24310636#2" to="8916867#2" depart="18240" />
	<trip id="16973" from="-133755930#1" to="8922560#0" depart="18240" />
	<trip id="17313" from="-204967525" to="27054213#4" depart="18240" />
	<trip id="4025" from="-133781749" to="88463829#0" depart="18300" />
	<trip id="5603" from="90077241" to="255168046#0" depart="18300" />
	<trip id="6286" from="23959829#0" to="-35675861#1" depart="18300" />
	<trip id="14856" from="31129765" to="204884387#0" depart="18300" />
	<trip id="17010" from="142972028#1" to="8922858#1" depart="18300" />
	<trip id="6480" from="-27167281#1" to="111319423" depart="18360" />
	<trip id="8086" from="8916767#0" to="-8916922#2" depart="18360" />
	<trip id="12035" from="90077241" to="364480601#0" depart="18360" />
	<trip id="14205" from="31129765" to="254306572#0" depart="18360" />
	<trip id="5361" from="-204967525" to="290080809#4" depart="18420" />
	<trip id="5854" from="-27570786#2" to="120256350#3" depart="18420" />
	<trip id="10547" from="90077241" to="-254466686#4" depart="18420" />
	<trip id="11956" from="-35977367#2" to="286003244#9" depart="18420" />
	<trip id="16953" from="-206662304#13" to="-27398032#2" depart="18420" />
	<trip id="5400" from="-27029204" to="8917425" depart="18480" />
	<trip id="6377" from="86303763#0" to="27397692" depart="18480" />
	<trip id="6687" from="142972028#1" to="120256350#3" depart="18480" />
	<trip id="6703" from="-35977367#2" to="8919328#0" depart="18480" />
	<trip id="8412" from="90077241" to="91181771#3" depart="18480" />
	<trip id="8660" from="23959829#0" to="99231475" depart="18480" />
	<trip id="9165" from="31129765" to="225518502#2" depart="18480" />
	<trip id="9890" from="133733582#2" to="-255330036#7" depart="18480" />
	<trip id="11056" from="144489137#0" to="-8916551" depart="18480" />
	<trip id="11214" from="-35977367#2" to="-88559680#4" depart="18480" />
	<trip id="11494" from="23959829#0" to="255330036#8" depart="18480" />
	<trip id="12823" from="142972028#1" to="287958607#3" depart="18480" />
	<trip id="13362" from="-27570786#2" to="47108420#3" depart="18480" />
	<trip id="13450" from="-133755930#1" to="-99231475" depart="18480" />
	<trip id="14729" from="-35977367#2" to="47108420#0" depart="18480" />
	<trip id="14825" from="-160313263#1" to="-47108420#2" depart="18480" />
	<trip id="15334" from="31129765" to="47108420#0" depart="18480" />
	<trip id="1266" from="28805009#5" to="27570802#1" depart="18540" />
	<trip id="2206" from="90077241" to="-255330036#10" depart="18540" />
	<trip id="3673" from="-27029204" to="120256350#8" depart="18540" />
	<trip id="3982" from="90077241" to="-225518512#1" depart="18540" />
	<trip id="4771" from="-160313263#1" to="-88559691#6" depart="18540" />
	<trip id="6460" from="8916767#0" to="8916922#0" depart="18540" />
	<trip id="7029" from="-206679802#4" to="91181771#5" depart="18540" />
	<trip id="7039" from="90077241" to="225432457" depart="18540" />
	<trip id="7258" from="-8916048" to="225432457" depart="18540" />
	<trip id="7560" from="191296172#0" to="247960234#1" depart="18540" />
	<trip id="8635" from="-27029200#2" to="-8916922#2" depart="18540" />
	<trip id="8769" from="-204967525" to="225518512#0" depart="18540" />
	<trip id="9215" from="123867455" to="225518512#0" depart="18540" />
	<trip id="9528" from="-35977367#1" to="225847519#4" depart="18540" />
	<trip id="9756" from="90077241" to="224316522#0" depart="18540" />
	<trip id="10474" from="90077241" to="-p3#1" depart="18540" />
	<trip id="16725" from="8916792" to="91181771#0" depart="18540" />
	<trip id="16789" from="-133781749" to="224200967" depart="18540" />
	<trip id="2175" from="-30029708#0" to="50690291#1" depart="18600" />
	<trip id="2419" from="gneE21" to="206662304#13" depart="18600" />
	<trip id="2932" from="-254758120#3" to="283534317#6" depart="18600" />
	<trip id="3720" from="225806031#0" to="225518502#3" depart="18600" />
	<trip id="6494" from="111089307#0" to="88466052#1" depart="18600" />
	<trip id="8765" from="8916767#0" to="283537552#0" depart="18600" />
	<trip id="12059" from="-23883761" to="-242896157#0" depart="18600" />
	<trip id="12184" from="224384035#0" to="133733590#0" depart="18600" />
	<trip id="13274" from="90077241" to="287958607#3" depart="18600" />
	<trip id="14583" from="27167762" to="254971068" depart="18600" />
	<trip id="463" from="-24335483#9" to="27054205#1" depart="18660" />
	<trip id="3832" from="111089307#0" to="214545530#0" depart="18660" />
	<trip id="4075" from="8915254" to="-283537552#0" depart="18660" />
	<trip id="5741" from="-206662304#13" to="99231468#0" depart="18660" />
	<trip id="5977" from="8915254" to="27397692" depart="18660" />
	<trip id="7045" from="90077241" to="8916922#3" depart="18660" />
	<trip id="7738" from="90077241" to="-8922307" depart="18660" />
	<trip id="9136" from="-254297762#2" to="8922307" depart="18660" />
	<trip id="11139" from="224384035#0" to="-254396709#1" depart="18660" />
	<trip id="16922" from="90077241" to="224316522#0" depart="18660" />
	<trip id="7869" from="224384035#0" to="225432462#0" depart="18720" />
	<trip id="13105" from="142972028#1" to="224316522#0" depart="18720" />
	<trip id="13938" from="-254297762#2" to="133733593#1" depart="18720" />
	<trip id="1775" from="-288065247#1" to="-133733582#3" depart="18960" />
	<trip id="3791" from="-263819574#1" to="8916048" depart="18960" />
	<trip id="3873" from="90077241" to="99231475" depart="18960" />
	<trip id="4480" from="254396707#6" to="-202485361#1" depart="18960" />
	<trip id="4511" from="23959829#0" to="364480069" depart="18960" />
	<trip id="5001" from="-24310636#2" to="8919328#1" depart="18960" />
	<trip id="6134" from="90077241" to="120256350#3" depart="18960" />
	<trip id="7312" from="90077241" to="88559691#4" depart="18960" />
	<trip id="7722" from="-144346316#5" to="8919403#0" depart="18960" />
	<trip id="7889" from="8916792" to="110361656" depart="18960" />
	<trip id="8753" from="-160313263#1" to="-8916922#0" depart="18960" />
	<trip id="8763" from="90077241" to="225432462#0" depart="18960" />
	<trip id="11277" from="-144346316#5" to="47172834#2" depart="18960" />
	<trip id="14589" from="8916792" to="p3#0" depart="18960" />
	<trip id="14661" from="90077241" to="-8920734" depart="18960" />
	<trip id="16434" from="86303763#0" to="133733593#0" depart="18960" />
	<trip id="16766" from="224384035#0" to="8916551" depart="18960" />
	<trip id="17353" from="84823308" to="8919616#1" depart="18960" />
	<trip id="1877" from="225806031#0" to="32931798#2" depart="19020" />
	<trip id="4405" from="-24335483#9" to="283537552#0" depart="19020" />
	<trip id="4843" from="-204967525" to="225518502#3" depart="19020" />
	<trip id="5723" from="-204967525" to="225518502#2" depart="19020" />
	<trip id="5973" from="8916792" to="27397919" depart="19020" />
	<trip id="7243" from="-254297762#2" to="8918460#0" depart="19020" />
	<trip id="8235" from="142972028#1" to="8917425" depart="19020" />
	<trip id="9746" from="191296172#0" to="26769717#1" depart="19020" />
	<trip id="13718" from="31129765" to="228196396" depart="19020" />
	<trip id="17166" from="-23883760" to="8919328#1" depart="19020" />
	<trip id="3366" from="144489137#3" to="254756525#26" depart="19080" />
	<trip id="1781" from="148847001#0" to="8918874" depart="19140" />
	<trip id="4879" from="133733582#2" to="-225518512#1" depart="19140" />
	<trip id="10141" from="-254297762#2" to="-283537552#0" depart="19140" />
	<trip id="10968" from="111089307#0" to="-283537552#0" depart="19140" />
	<trip id="13012" from="-254297762#2" to="8919616#0" depart="19140" />
	<trip id="14924" from="-254297762#2" to="133733593#1" depart="19140" />
	<trip id="11918" from="-133755923#1" to="35977367#2" depart="19200" />
	<trip id="5140" from="8916767#0" to="-8922307" depart="19260" />
	<trip id="17866" from="-88572874#1" to="225847519#4" depart="19320" />
	<trip id="3764" from="8919058" to="100400947#11" depart="19380" />
	<trip id="33" from="254396707#6" to="8919020#0" depart="19440" />
	<trip id="1988" from="-254758120#3" to="-24335440#0" depart="19440" />
	<trip id="2889" from="288065247#6" to="254756525#26" depart="19440" />
	<trip id="3710" from="225806031#0" to="35675861#1" depart="19440" />
	<trip id="3806" from="-48211196#4" to="133755930#1" depart="19440" />
	<trip id="3990" from="225806031#0" to="364480069" depart="19440" />
	<trip id="4073" from="-24335483#9" to="-225432462#1" depart="19440" />
	<trip id="4612" from="31129765" to="111049100#0" depart="19440" />
	<trip id="4853" from="90077241" to="-88463830" depart="19440" />
	<trip id="5771" from="90077241" to="120256350#8" depart="19440" />
	<trip id="6897" from="-204967525" to="-225432462#1" depart="19440" />
	<trip id="7683" from="-24335483#9" to="283537380#2" depart="19440" />
	<trip id="8112" from="90077241" to="-8916922#4" depart="19440" />
	<trip id="11460" from="-27029204" to="133733590#0" depart="19440" />
	<trip id="12111" from="-27167281#1" to="224200967" depart="19440" />
	<trip id="12263" from="-23883761" to="88597553#2" depart="19440" />
	<trip id="12625" from="90077241" to="-35675862" depart="19440" />
	<trip id="13050" from="23959829#0" to="27146036#1" depart="19440" />
	<trip id="13563" from="-23883761" to="255330036#12" depart="19440" />
	<trip id="14136" from="111089307#0" to="224316513#0" depart="19440" />
	<trip id="14179" from="-35977367#2" to="-175129396#1" depart="19440" />
	<trip id="14453" from="90077241" to="8922307" depart="19440" />
	<trip id="15234" from="-27167281#1" to="-287958606#1" depart="19440" />
	<trip id="17980" from="-27167281#1" to="-224316527" depart="19440" />
	<trip id="819" from="34128713#0" to="154966358" depart="19500" />
	<trip id="2019" from="288065247#6" to="24335483#9" depart="19500" />
	<trip id="4260" from="191296172#0" to="-283537552#0" depart="19500" />
	<trip id="4823" from="224384035#0" to="-88559691#6" depart="19500" />
	<trip id="4855" from="27167762" to="-99231475" depart="19500" />
	<trip id="6939" from="-48211062#12" to="-27397937" depart="19500" />
	<trip id="7047" from="-133755930#1" to="-88463830" depart="19500" />
	<trip id="8186" from="-204967525" to="99231460" depart="19500" />
	<trip id="8295" from="-254758120#3" to="-99231475" depart="19500" />
	<trip id="8418" from="31129765" to="8922307" depart="19500" />
	<trip id="11064" from="31129765" to="-88559702#0" depart="19500" />
	<trip id="13008" from="90077241" to="133733590#0" depart="19500" />
	<trip id="13195" from="-27029200#2" to="8922164#4" depart="19500" />
	<trip id="14299" from="-27167281#1" to="254758126#3" depart="19500" />
	<trip id="14698" from="90077241" to="364480068#1" depart="19500" />
	<trip id="15260" from="86303763#0" to="-202485361#1" depart="19500" />
	<trip id="18169" from="144489137#0" to="-88463830" depart="19500" />
	<trip id="3132" from="-133755930#1" to="30029703#4" depart="19560" />
	<trip id="3869" from="-27570802#1" to="-242896157#3" depart="19560" />
	<trip id="3984" from="90077241" to="-254971064#1" depart="19560" />
	<trip id="7035" from="-133755930#1" to="329607867" depart="19560" />
	<trip id="7809" from="31129765" to="-8922307" depart="19560" />
	<trip id="8843" from="90077241" to="364480068#1" depart="19560" />
	<trip id="13801" from="-24335483#9" to="254756525#3" depart="19560" />
	<trip id="2266" from="90077241" to="-88572877#6" depart="19620" />
	<trip id="2937" from="90077241" to="99231466" depart="19620" />
	<trip id="2204" from="-27029200#2" to="254756520#2" depart="19680" />
	<trip id="4692" from="254396707#6" to="27397691" depart="19680" />
	<trip id="10284" from="31129765" to="-99231486" depart="19680" />
	<trip id="12172" from="90077241" to="30758839#1" depart="19680" />
	<trip id="4752" from="-27570802#1" to="8919403#0" depart="19740" />
	<trip id="7645" from="84823308" to="91181771#0" depart="19740" />
	<trip id="7875" from="8916792" to="179235241" depart="19740" />
	<trip id="8014" from="31129765" to="242896157#1" depart="19740" />
	<trip id="11326" from="133733582#2" to="287958606#0" depart="19740" />
	<trip id="2405" from="-33789567" to="-191296172#0" depart="19800" />
	<trip id="4056" from="-27397692" to="35977367#2" depart="19800" />
	<trip id="4182" from="-242896157#0" to="204967525" depart="19800" />
	<trip id="5222" from="-191296172#2" to="154966358" depart="19800" />
	<trip id="5399" from="-254758139#0" to="50690291#1" depart="19800" />
	<trip id="8084" from="-204967525" to="-8916922#0" depart="19800" />
	<trip id="8620" from="120256350#3" to="-133733582#3" depart="19800" />
	<trip id="11583" from="31129765" to="254758126#3" depart="19800" />
	<trip id="17467" from="204884387#0" to="254297763#7" depart="19800" />
	<trip id="1658" from="47172109#0" to="30454437" depart="19860" />
	<trip id="4930" from="144489137#0" to="-35675861#1" depart="19860" />
	<trip id="5702" from="8915254" to="204884378#0" depart="19860" />
	<trip id="7025" from="31129765" to="8916922#3" depart="19860" />
	<trip id="12699" from="204884387#0" to="50690291#1" depart="19860" />
	<trip id="17330" from="8922307" to="254756525#26" depart="19860" />
	<trip id="2229" from="-111089307#4" to="52432936#0" depart="19920" />
	<trip id="11573" from="144489137#7" to="154966358" depart="19920" />
	<trip id="12300" from="-35675861#0" to="48211062#12" depart="19920" />
	<trip id="13031" from="-24310636#2" to="-287958606#1" depart="19920" />
	<trip id="14713" from="225518502#2" to="27029200#2" depart="19920" />
	<trip id="2610" from="-88572970" to="50690291#1" depart="19980" />
	<trip id="2399" from="8919179#1" to="254297762#1" depart="20040" />
	<trip id="8031" from="191296172#0" to="-p4#0" depart="20040" />
	<trip id="9631" from="254396709#0" to="91181767" depart="20040" />
	<trip id="15048" from="99231460" to="-8916792" depart="20040" />
	<trip id="15398" from="254466686#4" to="204967525" depart="20040" />
	<trip id="16940" from="224384035#0" to="8918381#1" depart="20040" />
	<trip id="274" from="31129765" to="-215524529" depart="20100" />
	<trip id="5604" from="88466052#1" to="50690291#1" depart="20100" />
	<trip id="17011" from="111089307#0" to="88463830" depart="20100" />
	<trip id="5362" from="p1#1" to="154966358" depart="20220" />
	<trip id="14730" from="27146036#1" to="154966358" depart="20280" />
	<trip id="4411" from="-48211062#12" to="p4#0" depart="20340" />
	<trip id="2420" from="90077241" to="-215524529" depart="20400" />
	<trip id="8766" from="-242896157#0" to="50690291#1" depart="20400" />
	<trip id="1489" from="-254297762#2" to="-254758121#3" depart="20520" />
	<trip id="3118" from="31129765" to="224316522#0" depart="20520" />
	<trip id="10486" from="-24310636#2" to="51392400" depart="20520" />
	<trip id="5322" from="31129765" to="-99231486" depart="20640" />
	<trip id="4051" from="144489137#0" to="225432462#0" depart="20760" />
	<trip id="12883" from="191296172#0" to="287958607#2" depart="20760" />
	<trip id="7001" from="225806031#0" to="8919403#0" depart="20820" />
	<trip id="11789" from="-204967525" to="120813417" depart="20820" />
	<trip id="11991" from="225806031#0" to="-99231475" depart="20820" />
	<trip id="1330" from="-204884378#1" to="50690291#1" depart="20880" />
	<trip id="4628" from="254396707#6" to="91181771#4" depart="20880" />
	<trip id="4804" from="-254297762#2" to="-27397937" depart="20880" />
	<trip id="5343" from="191296172#0" to="27397919" depart="20880" />
	<trip id="5668" from="90077241" to="225432457" depart="20880" />
	<trip id="8349" from="31129765" to="8916551" depart="20880" />
	<trip id="11349" from="-254297762#2" to="133733590#0" depart="20880" />
	<trip id="15069" from="-24310636#2" to="-99231486" depart="20880" />
	<trip id="16167" from="-27167281#1" to="224316522#0" depart="20880" />
	<trip id="16741" from="-254297762#2" to="225518502#0" depart="20880" />
	<trip id="16971" from="90077241" to="43100046" depart="20880" />
	<trip id="17027" from="90077241" to="247966218#4" depart="20880" />
	<trip id="4272" from="-27029200#2" to="225432462#0" depart="20940" />
	<trip id="7517" from="-204967525" to="88463829#0" depart="20940" />
	<trip id="11985" from="27398045#1" to="-204884387#2" depart="20940" />
	<trip id="16331" from="8916767#0" to="364480601#0" depart="20940" />
	<trip id="16961" from="23959829#0" to="224316514#0" depart="20940" />
	<trip id="3700" from="27167762" to="-364480069" depart="21000" />
	<trip id="3833" from="8920934" to="254448252#1" depart="21000" />
	<trip id="5932" from="31129765" to="-99231486" depart="21000" />
	<trip id="8184" from="-254297762#2" to="225518512#0" depart="21000" />
	<trip id="10629" from="90077241" to="225518512#0" depart="21060" />
	<trip id="11202" from="90077241" to="-224316527" depart="21060" />
	<trip id="14888" from="-160313263#1" to="262943781" depart="21060" />
	<trip id="17768" from="-133755930#1" to="287958607#0" depart="21060" />
	<trip id="2913" from="-27029200#2" to="p4#0" depart="21120" />
	<trip id="3871" from="-204967525" to="283537552#0" depart="21120" />
	<trip id="4246" from="90077241" to="-8916922#2" depart="21120" />
	<trip id="9111" from="-48211062#12" to="-27397937" depart="21120" />
	<trip id="16242" from="90077241" to="27397937" depart="21120" />
	<trip id="17867" from="-24310636#2" to="24335439#0" depart="21120" />
	<trip id="919" from="-30030485#0" to="154966358" depart="21180" />
	<trip id="4947" from="254396707#6" to="364480601#1" depart="21180" />
	<trip id="7623" from="31129765" to="91181771#15" depart="21180" />
	<trip id="12660" from="-27167281#1" to="p3#0" depart="21180" />
	<trip id="12851" from="23959829#0" to="364480601#0" depart="21240" />
	<trip id="2556" from="8920734" to="-8916792" depart="21300" />
	<trip id="2575" from="111089307#0" to="256787755#3" depart="21300" />
	<trip id="13196" from="8918039#2" to="24335441" depart="21300" />
	<trip id="14437" from="-206662304#13" to="-99231486" depart="21300" />
	<trip id="18170" from="27397691" to="24310636#2" depart="21300" />
	<trip id="1778" from="30030283#1" to="254448252#1" depart="21360" />
	<trip id="2141" from="84734271#2" to="24335441" depart="21360" />
	<trip id="3133" from="-30029703#8" to="50690291#1" depart="21360" />
	<trip id="4039" from="8916792" to="255168046#2" depart="21360" />
	<trip id="4576" from="-204967525" to="8915752" depart="21360" />
	<trip id="5439" from="133733582#2" to="8915752" depart="21360" />
	<trip id="7314" from="31129765" to="-225518512#1" depart="21360" />
	<trip id="8076" from="224384035#0" to="-8922307" depart="21360" />
	<trip id="10186" from="-160313263#1" to="88463830" depart="21360" />
	<trip id="11212" from="144489137#0" to="8916867#2" depart="21360" />
	<trip id="15098" from="8916792" to="287958607#2" depart="21360" />
	<trip id="16668" from="90077241" to="254971068" depart="21360" />
	<trip id="3937" from="-48211062#12" to="254299142#3" depart="21420" />
	<trip id="4276" from="224384035#0" to="-35675861#1" depart="21420" />
	<trip id="5164" from="-35977367#2" to="91181771#5" depart="21420" />
	<trip id="6132" from="-24335483#9" to="364480068#0" depart="21420" />
	<trip id="6141" from="31129765" to="88463830" depart="21420" />
	<trip id="7098" from="-23883760" to="27397937" depart="21420" />
	<trip id="7121" from="-23883761" to="364480068#1" depart="21420" />
	<trip id="7859" from="144489137#0" to="283537380#2" depart="21420" />
	<trip id="8113" from="99231460" to="-8916792" depart="21420" />
	<trip id="12903" from="-144346316#5" to="224316514#0" depart="21420" />
	<trip id="17922" from="90077241" to="28319343#3" depart="21420" />
	<trip id="6498" from="-23883760" to="111049100#0" depart="21480" />
	<trip id="12264" from="254756525#0" to="154966358" depart="21480" />
	<trip id="17385" from="8916767#0" to="-88466055#1" depart="21480" />
	<trip id="5357" from="-27029204" to="111319423" depart="21540" />
	<trip id="6026" from="31129765" to="8918460#0" depart="21540" />
	<trip id="6409" from="144489137#0" to="-283537552#0" depart="21540" />
	<trip id="6780" from="-27167281#1" to="283537552#0" depart="21540" />
	<trip id="7412" from="142972028#1" to="99231468#0" depart="21540" />
	<trip id="7795" from="86303763#0" to="8915752" depart="21540" />
	<trip id="11278" from="254299117#0" to="154966358" depart="21540" />
	<trip id="15639" from="111089307#0" to="8922560#0" depart="21540" />
	<trip id="16391" from="-48211062#12" to="359898621#0" depart="21540" />
	<trip id="825" from="90077241" to="256787755#0" depart="21600" />
	<trip id="936" from="148847000#4" to="133781749" depart="21600" />
	<trip id="1473" from="254297761#2" to="8916048" depart="21600" />
	<trip id="1769" from="-87297164#2" to="154966358" depart="21600" />
	<trip id="2315" from="-24310636#2" to="-122498865" depart="21600" />
	<trip id="2736" from="8916792" to="8919020#0" depart="21600" />
	<trip id="3374" from="48211487#0" to="154966358" depart="21600" />
	<trip id="3564" from="8916767#0" to="-254971064#1" depart="21600" />
	<trip id="3974" from="-48211062#12" to="120256350#8" depart="21600" />
	<trip id="3998" from="-206662304#13" to="364480601#1" depart="21600" />
	<trip id="4002" from="-27570786#2" to="27397692" depart="21600" />
	<trip id="4232" from="-27570802#1" to="8919338" depart="21600" />
	<trip id="4268" from="-254297762#2" to="8916922#0" depart="21600" />
	<trip id="4584" from="-204967525" to="-88463830" depart="21600" />
	<trip id="4910" from="90077241" to="8919328#1" depart="21600" />