<?xml version="1.0" encoding="UTF-8"?>

<!-- generated on 2022-12-12 09:54:22.198962 by generateVehicleFromTrips.py v1_14_1+0000-f654d7b963e
  options: -net san_francisco.net.xml -trp clear.trips.xml -vtp passenger -o san_francisco.rou.xml
-->

<routes xmlns:xsi="http://www.w3.org/2001/XMLSchema-instance" xsi:noNamespaceSchemaLocation="http://sumo.dlr.de/xsd/routes_file.xsd">
<vType id="vecType" vClass="passenger"/>
    <vehicle id="386" type="vecType" depart="21360">
        <route edges="8916792 28518571#0 28518571#1 133755923#0 -7373728 7373736#0 -162931811#0 141688972#2 255330036#0 255330036#3 255330036#4 255330036#5 133735130#2 133735130#4 254299142#0 254299142#1 254299142#2 254299142#3 255168046#0 255168046#2"/>
    </vehicle>
    <vehicle id="470" type="vecType" depart="21600">
        <route edges="225806031#0 225806031#2 254759928#0 254759928#1 254759928#2 254759928#3 254759927#0 254759927#1 111547662#0 88572901#0 264874017#0 25657409#17 25657409#18 25657409#19 255168047#0 255168047#3 255168046#0 255168046#2"/>
    </vehicle>
</routes>
