<?xml version="1.0" encoding="UTF-8"?>

<!-- generated on 2022-12-12 09:54:22.198962 by generateVehicleFromTrips.py v1_14_1+0000-f654d7b963e
  options: -net san_francisco.net.xml -trp clear.trips.xml -vtp passenger -o san_francisco.rou.xml
-->

<routes xmlns:xsi="http://www.w3.org/2001/XMLSchema-instance" xsi:noNamespaceSchemaLocation="http://sumo.dlr.de/xsd/routes_file.xsd">
<vType id="vecType" vClass="passenger"/>
    <vehicle id="4" type="vecType" depart="18000">
        <route edges="142972028#1 89624695#0 8916932 88572943#1 -225847525 -365816004 8921141#0 -88572914#2 -88572941 -88572932#2 -88572932#1 -88572932#0 -51392400 -51392402#0 -51392402#1 -111560680 86334994#0 -88572965#1 -88572965#0 -88559669 -88572877#6 -88572970 -256400251#1 256400244#0 -99231475 -254971064#1 -8916922#4 -8916922#2 8916922#1"/>
    </vehicle>
    <vehicle id="26" type="vecType" depart="18000">
        <route edges="-24310636#2 -24310636#1 -24310636#0 24335439#0 24335439#1 24335439#2 -27029263 -88572874#2 -88572874#1 -88572874#0 -88572887#1 -88572887#0 -88572914#2 -88572941 -88572932#2 -88572932#1 -88572932#0 -51392400 -51392402#0 -51392402#1 -111560680 86334994#0 -88572965#1 -88572965#0 -88559669 -88572877#6 -88572970 88572881#0 88572881#3 88597575#0 88597553#1 27054213#6"/>
    </vehicle>

</routes>
