<?xml version="1.0" encoding="UTF-8"?>

<!-- generated on 2022-12-12 09:54:22.198962 by generateVehicleFromTrips.py v1_14_1+0000-f654d7b963e
  options: -net san_francisco.net.xml -trp clear.trips.xml -vtp passenger -o san_francisco.rou.xml
-->

<routes xmlns:xsi="http://www.w3.org/2001/XMLSchema-instance" xsi:noNamespaceSchemaLocation="http://sumo.dlr.de/xsd/routes_file.xsd">
<vType id="vecType" vClass="passenger"/>
    <vehicle id="0" type="vecType" depart="18000">
        <route edges="123867455 8920391#0 255330048 255351721#0 -27656675 26943623 -111550911#3 -111550911#2 -111550911#1 -111550911#0 -88559680#5 255330036#10 255330036#11"/>
    </vehicle>
    <vehicle id="1" type="vecType" depart="18000">
        <route edges="123867455 8920391#0 255330048 255351721#0 -27656675 26943623 -111550911#3 -111550911#2 -111550911#1 -111550911#0 -88559680#5 255330036#10 255330036#11"/>
    </vehicle>
    <vehicle id="2" type="vecType" depart="18000">
        <route edges="123867455 8920391#0 255330048 255351721#0 -27656675 26943623 -111550911#3 -111550911#2 -111550911#1 -111550911#0 -88559680#5 255330036#10 255330036#11"/>
    </vehicle>
    <vehicle id="3" type="vecType" depart="18000">
        <route edges="123867455 8920391#0 255330048 255351721#0 -27656675 26943623 -111550911#3 -111550911#2 -111550911#1 -111550911#0 -88559680#5 255330036#10 255330036#11"/>
    </vehicle>
    <vehicle id="4" type="vecType" depart="18000">
        <route edges="123867455 8920391#0 255330048 255351721#0 -27656675 26943623 -111550911#3 -111550911#2 -111550911#1 -111550911#0 -88559680#5 255330036#10 255330036#11"/>
    </vehicle>
    <vehicle id="5" type="vecType" depart="18000">
        <route edges="123867455 8920391#0 255330048 255351721#0 -27656675 26943623 -111550911#3 -111550911#2 -111550911#1 -111550911#0 -88559680#5 255330036#10 255330036#11"/>
    </vehicle>
    <vehicle id="6" type="vecType" depart="18000">
        <route edges="123867455 8920391#0 255330048 255351721#0 -27656675 26943623 -111550911#3 -111550911#2 -111550911#1 -111550911#0 -88559680#5 255330036#10 255330036#11"/>
    </vehicle>
    <vehicle id="7" type="vecType" depart="18000">
        <route edges="123867455 8920391#0 255330048 255351721#0 -27656675 26943623 -111550911#3 -111550911#2 -111550911#1 -111550911#0 -88559680#5 255330036#10 255330036#11"/>
    </vehicle>
    <vehicle id="8" type="vecType" depart="18000">
        <route edges="123867455 8920391#0 255330048 255351721#0 -27656675 26943623 -111550911#3 -111550911#2 -111550911#1 -111550911#0 -88559680#5 255330036#10 255330036#11"/>
    </vehicle>
    <vehicle id="9" type="vecType" depart="18000">
        <route edges="123867455 8920391#0 255330048 255351721#0 -27656675 26943623 -111550911#3 -111550911#2 -111550911#1 -111550911#0 -88559680#5 255330036#10 255330036#11"/>
    </vehicle>
    <vehicle id="10" type="vecType" depart="18000">
        <route edges="123867455 8920391#0 255330048 255351721#0 -27656675 26943623 -111550911#3 -111550911#2 -111550911#1 -111550911#0 -88559680#5 255330036#10 255330036#11"/>
    </vehicle>
    <vehicle id="11" type="vecType" depart="18000">
        <route edges="123867455 8920391#0 255330048 255351721#0 -27656675 26943623 -111550911#3 -111550911#2 -111550911#1 -111550911#0 -88559680#5 255330036#10 255330036#11"/>
    </vehicle>
    <vehicle id="12" type="vecType" depart="18000">
        <route edges="123867455 8920391#0 255330048 255351721#0 -27656675 26943623 -111550911#3 -111550911#2 -111550911#1 -111550911#0 -88559680#5 255330036#10 255330036#11"/>
    </vehicle>
    <vehicle id="13" type="vecType" depart="18000">
        <route edges="123867455 8920391#0 255330048 255351721#0 -27656675 26943623 -111550911#3 -111550911#2 -111550911#1 -111550911#0 -88559680#5 255330036#10 255330036#11"/>
    </vehicle>
    <vehicle id="14" type="vecType" depart="18000">
        <route edges="123867455 8920391#0 255330048 255351721#0 -27656675 26943623 -111550911#3 -111550911#2 -111550911#1 -111550911#0 -88559680#5 255330036#10 255330036#11"/>
    </vehicle>
    <vehicle id="15" type="vecType" depart="18000">
        <route edges="123867455 8920391#0 255330048 255351721#0 -27656675 26943623 -111550911#3 -111550911#2 -111550911#1 -111550911#0 -88559680#5 255330036#10 255330036#11"/>
    </vehicle>
    <vehicle id="16" type="vecType" depart="18000">
        <route edges="123867455 8920391#0 255330048 255351721#0 -27656675 26943623 -111550911#3 -111550911#2 -111550911#1 -111550911#0 -88559680#5 255330036#10 255330036#11"/>
    </vehicle>
    <vehicle id="17" type="vecType" depart="18000">
        <route edges="123867455 8920391#0 255330048 255351721#0 -27656675 26943623 -111550911#3 -111550911#2 -111550911#1 -111550911#0 -88559680#5 255330036#10 255330036#11"/>
    </vehicle>
    <vehicle id="18" type="vecType" depart="18000">
        <route edges="123867455 8920391#0 255330048 255351721#0 -27656675 26943623 -111550911#3 -111550911#2 -111550911#1 -111550911#0 -88559680#5 255330036#10 255330036#11"/>
    </vehicle>
    <vehicle id="19" type="vecType" depart="18000">
        <route edges="123867455 8920391#0 255330048 255351721#0 -27656675 26943623 -111550911#3 -111550911#2 -111550911#1 -111550911#0 -88559680#5 255330036#10 255330036#11"/>
    </vehicle>
</routes>
