<?xml version="1.0" encoding="UTF-8"?>

<!-- generated on 2022-12-12 09:54:22.198962 by generateVehicleFromTrips.py v1_14_1+0000-f654d7b963e
  options: -net san_francisco.net.xml -trp clear.trips.xml -vtp passenger -o san_francisco.rou.xml
-->

<routes xmlns:xsi="http://www.w3.org/2001/XMLSchema-instance" xsi:noNamespaceSchemaLocation="http://sumo.dlr.de/xsd/routes_file.xsd">
<vType id="vecType" vClass="passenger"/>
 <vehicle id="300" type="vecType" depart="19800">
        <route edges="-242896157#0 8918460#0 99231463#0 224373751 28319343#0 8916375#0 8916375#1 254466686#0 254466686#1 254466686#2 254466686#3 254466686#4 254396719#0 254756526#0 254971069#0 27054195#0 8922640#0 254971056#0 91185877#0 91185877#1 30030101#0 30030101#1 87376669 48211487#0 48211487#1 48211487#2 48211828 254756518 148874363#0 148874364#0 148874364#1 148874364#3 30029708#0 30029708#1 30029708#2 30029866#0 30029866#2 30029866#3 87297168 204967525"/>
    </vehicle>
    <vehicle id="301" type="vecType" depart="19800">
        <route edges="-191296172#2 191296172#1 25657409#0 25657409#2 25657409#3 25657409#4 25657409#5 25657409#7 25657409#9 25657409#10 25657409#11 8919872#0 8919872#1 254305033#4 254305033#5 8915588 254299122 154966358"/>
    </vehicle>
    <vehicle id="302" type="vecType" depart="19800">
        <route edges="-254758139#0 26779600 123741454#3 123741452 202317709 50690291#0 50690291#1"/>
    </vehicle>
    <vehicle id="303" type="vecType" depart="19800">
        <route edges="-204967525 -87297168 30029867#0 30029867#1 30029867#2 -30029708#2 -30029708#1 -30029708#0 30030100#0 30030100#2 148846995 148846996#0 148846996#1 148846996#2 -48211487#2 -48211487#1 -48211487#0 48211960 87376672#0 87376672#1 -91185877#1 -91185877#0 -254971056#1 8919205#17 8919205#18 8919205#21 8919205#24 47108420#0 47108420#3 47108420#4 28843496 30758839#0 30758839#1 8922560#0 8922560#1 8922560#3 8922560#4 283512618#0 283512618#3 283512618#5 88463827#0 -8916922#0"/>
    </vehicle>
    <vehicle id="304" type="vecType" depart="19800">
        <route edges="120256350#3 -242896157#0 -202485361#1 -99231486 364480069 364480068#0 364480068#1 364480068#2 88572970 88572877#0 88559669 88572965#0 88572965#1 111560679#0 111560679#3 111560680 51392402 51392400 88572932#0 88572932#1 88572932#2 88572941 88572922#0 225847526 204963435 8917813 225847523 -225853134 -133733582#3"/>
    </vehicle>
    <vehicle id="305" type="vecType" depart="19800">
        <route edges="31129765 123741465 8915117 27432609 157812260#7 157812260#8 157812260#9 157812260#10 157812260#11 88572922#0 35973460#1 263855294#0 8920975#0 8920975#1 8920975#2 277480425 254758126#0 254758126#1 254758126#2 254758126#3"/>
    </vehicle>
    <vehicle id="306" type="vecType" depart="19800">
        <route edges="204884387#0 144489134#0 144489134#2 144489134#3 290080809#0 290080809#4 84654238#0 84654238#3 28841121#4 254297763#0 254297763#1 254297763#2 254297763#3 254297763#4 254297763#6 254297763#7"/>
    </vehicle>
    <vehicle id="307" type="vecType" depart="19860">
        <route edges="47172109#0 25657409#9 25657409#10 25657409#11 25657409#12 25657409#13 25657409#14 25657409#15 25657409#16 25657409#17 25657409#18 214545530#3 214545530#4 214545530#7 143617593 254758139#0 254758139#1 162931811#0 162931811#1 143617587 26943653#0 255330047#0 30454437"/>
    </vehicle>
    <vehicle id="308" type="vecType" depart="19860">
        <route edges="144489137#0 144489137#1 144489137#2 144489137#3 144489137#7 254758131#0 254758131#2 254758132#0 254758132#2 290052332#1 290052332#4 -144489136 -204884397 -228196396 -204884387#2 -224384019#1 88597577#0 88559691#0 88559691#4 225518502#0 329607867 -283537552#1 -283537552#0 -35675861#1"/>
    </vehicle>
    <vehicle id="309" type="vecType" depart="19860">
        <route edges="8915254 256787755#0 256787755#2 256787755#3 25657409#4 25657409#5 25657409#7 25657409#9 157812260#10 157812260#11 -88572941 -88572932#2 -88572932#1 -88572932#0 -51392400 -51392402#0 -51392402#1 -111560680 86334994#0 111552058#0 -228196396 -204884387#2 -224384019#1 -224384018 -225719777#1 -204884378#1 204884378#0"/>
    </vehicle>
    <vehicle id="310" type="vecType" depart="19860">
        <route edges="31129765 123741465 8915117 27432609 157812260#7 157812260#8 157812260#9 25657409#10 25657409#11 25657409#12 25657409#13 25657409#14 25657409#15 25657409#16 25657409#17 25657409#18 25657409#19 255168047#0 255168047#3 255168046#0 255168046#2 225518502#0 225518502#2 225518502#3 111049100#0 99231460 99231482 8918460#0 -254971064#1 -8916922#4 8916922#3"/>
    </vehicle>
    <vehicle id="311" type="vecType" depart="19860">
        <route edges="204884387#0 -204884387#2 -224384019#1 88597577#0 88559691#0 88559691#4 225518502#0 329607867 27772070 202317709 50690291#0 50690291#1"/>
    </vehicle>
    <vehicle id="312" type="vecType" depart="19860">
        <route edges="8922307 364480069 364480068#0 364480068#1 364480068#2 88572881#0 88572881#3 88597575#0 88597553#1 88597553#2 254971067#0 254466695#0 254466695#2 254466695#3 329596844#1 28841115#2 91181759#2 100400946 91181760#0 91181760#1 27166421#1 254756525#19 254756525#20 254756525#23 254756525#25 254756525#26"/>
    </vehicle>
    <vehicle id="313" type="vecType" depart="19920">
        <route edges="-111089307#4 111089307#4 -27029200#1 -25758513 27029265#3 186400366#0 186400366#1 186400366#2 247960234#1 247966218#0 247966218#3 247966218#4 247966218#5 247966218#6 247966218#7 247966218#8 141688972#0 141688972#1 162931811#0 162931811#1 143617587 26943653#0 52432939 255330070#0 255330070#3 52432936#0"/>
    </vehicle>
    <vehicle id="314" type="vecType" depart="19920">
        <route edges="144489137#7 254758125#0 277480563#0 277480563#1 277480563#2 254759927#0 254759927#1 111547662#0 88572901#0 264874017#0 264874017#3 264874017#4 264874017#5 254305033#0 254305033#1 254305033#2 254305033#3 254305033#4 254305033#5 8915588 254299122 154966358"/>
    </vehicle>
    <vehicle id="315" type="vecType" depart="19920">
        <route edges="-35675861#0 35675861#0 8922307 364480069 364480068#0 364480068#1 364480068#2 88572881#0 88572881#3 88597575#0 88597575#1 254466686#2 254466686#3 254466686#4 254396719#0 254756526#0 254971069#0 27054195#0 8922640#0 254971056#0 91185877#0 91185877#1 30030101#0 30030101#1 87376669 48211487#0 48211487#1 48211487#2 48211828 254756518 148874363#0 148874364#0 148874364#1 148874364#3 30029708#0 30029708#1 30029708#2 48211062#9 48211062#10 48211062#11 48211062#12"/>
    </vehicle>
    <vehicle id="316" type="vecType" depart="19920">
        <route edges="-24310636#2 -24310636#1 -24310636#0 24335439#0 24335439#1 24335439#2 -27029263 -88572874#2 -88572874#1 -88572874#0 -88572887#1 -88572887#0 -88572914#2 -88572941 -88572932#2 -88572932#1 -88572932#0 -51392400 -51392402#0 -51392402#1 -111560680 86334994#0 111552058#0 88597544#0 88597544#2 224316520#0 224316520#1 254297759#0 224316521#0 224316521#1 -287958606#1"/>
    </vehicle>
    <vehicle id="317" type="vecType" depart="19920">
        <route edges="225518502#2 8919403#0 283537644#0 283537644#2 88559702#0 88559702#1 88559702#2 25758528#0 25758528#1 143617584 143617585#0 143617585#1 143617585#2 254305033#0 254305033#1 254305033#2 254305033#3 254305033#4 254305033#5 254299121#0 254299121#1 254299121#5 254299121#6 254299121#8 254299121#9 25758513 27029200#0 27029200#2"/>
    </vehicle>
    <vehicle id="318" type="vecType" depart="19980">
        <route edges="-88572970 -256400251#1 256400244#0 225432457 -99231486 364480601#0 283537380#0 283537380#1 283537380#2 8915351 50690291#0 50690291#1"/>
    </vehicle>
    <vehicle id="319" type="vecType" depart="20040">
        <route edges="8919179#1 -8919179#1 254756521#3 254756521#5 254756521#6 32931798#3 27146036#0 27146036#1 27146036#2 91181772#0 27054195#0 8922640#0 254971056#0 91185877#0 91185877#1 30030101#0 30030101#1 87376669 48211487#0 48211487#1 48211487#2 48211828 254756518 148874363#0 148874364#0 148874364#1 148874364#3 30029708#0 30029708#1 30029708#2 30029866#0 30029866#2 88396403 -27570798#4 255168048#4 254297762#0 254297762#1"/>
    </vehicle>
    <vehicle id="320" type="vecType" depart="20040">
        <route edges="191296172#0 191296172#1 25657409#0 25657409#2 25657409#3 25657409#4 25657409#5 25657409#7 25657409#9 25657409#10 25657409#11 25657409#12 25657409#13 25657409#14 25657409#15 25657409#16 25657409#17 25657409#18 25657409#19 255168047#0 255168047#3 254299142#7 p4#0 -p4#0"/>
    </vehicle>
    <vehicle id="321" type="vecType" depart="20040">
        <route edges="254396709#0 287958606#0 287958606#3 91181759#0 91181759#2 100400946 27166466#0 100400947#2 100400947#4 27166444 254758124#0 254297763#2 254297763#3 254758122#1 254758122#3 84734271#7 91181767"/>
    </vehicle>
    <vehicle id="322" type="vecType" depart="20040">
        <route edges="99231460 27398032#0 -43100046 8917778 174822357#0 -255330036#12 -255330036#11 -255330036#10 -255330036#9 -255330036#8 -255330036#7 -255330036#6 -255330036#4 -255330036#3 -255330036#2 -141688972#2 162931811#0 -7373736#0 7373728 -133755923#0 -28518571#1 -28518571#0 -8916792"/>
    </vehicle>
    <vehicle id="323" type="vecType" depart="20040">
        <route edges="254466686#4 254396719#0 254756526#0 254971069#0 27054195#0 8922640#0 254971056#0 91185877#0 91185877#1 30030101#0 30030101#1 87376669 48211487#0 48211487#1 48211487#2 48211828 254756518 148874363#0 148874364#0 148874364#1 148874364#3 30029708#0 30029708#1 30029708#2 30029866#0 30029866#2 30029866#3 87297168 204967525"/>
    </vehicle>
    <vehicle id="324" type="vecType" depart="20040">
        <route edges="224384035#0 224384035#1 30029560#0 -25372932#4 27398045#5 27398045#6 27398045#7 8919058 8916882#0 -91181760#0 27166466#0 27166466#2 27166466#3 254297761#0 254297761#2 254297761#4 254758132#0 -30832504 -377646101#2 228202845#2 377646102#0 377646102#2 225806056 283534317#0 283534317#1 283534317#2 255168047#0 8922858#0 8922858#1 8918381#1"/>
    </vehicle>
    <vehicle id="325" type="vecType" depart="20100">
        <route edges="31129765 123741465 8915117 8915115#0 8915115#1 254299118#0 8916215 247966218#4 247966218#5 247966218#6 247966218#7 247966218#8 141688972#0 141688972#1 162931811#0 162931811#1 143617587 26943653#0 255330047#0 -131700725 27388400#0 52433698 37177689#10 -215524529"/>
    </vehicle>
    <vehicle id="326" type="vecType" depart="20100">
        <route edges="88466052#1 8916922#0 24335490#0 88463829#0 88466055#0 88466055#1 99231468#0 35675861#0 35675861#1 8915351 50690291#0 50690291#1"/>
    </vehicle>
    <vehicle id="327" type="vecType" depart="20100">
        <route edges="111089307#0 111089307#1 111089307#2 191296172#1 25657409#0 25657409#2 25657409#3 25657409#4 25657409#5 25657409#7 25657409#9 25657409#10 25657409#11 25657409#12 25657409#13 25657409#14 25657409#15 25657409#16 25657409#17 25657409#18 25657409#19 255168047#0 255168047#3 255168046#0 255168046#2 225518502#0 225518502#2 225518502#3 111049100#0 99231460 99231482 27397691 242896157#1 88463830"/>
    </vehicle>
    <vehicle id="328" type="vecType" depart="20220">
        <route edges="p1#1 290052332#4 -144489136 228201785#0 228201785#1 225806043 85789165 -85789165 85789166#0 88572895#0 91181771#16 264874017#0 264874017#3 264874017#4 264874017#5 254305033#0 254305033#1 254305033#2 254305033#3 254305033#4 254305033#5 8915588 254299122 154966358"/>
    </vehicle>
    <vehicle id="329" type="vecType" depart="20280">
        <route edges="27146036#1 27146036#2 91181775#0 27054213#0 27054213#2 27054213#4 27054213#6 91181774#0 8919020#0 88572877#0 88559669 88572948#0 91181771#4 91181771#5 91181771#6 283534317#2 283534317#5 283534317#6 283534317#8 8915151 31129732#1 31129732#2 254299122 154966358"/>
    </vehicle>
    <vehicle id="330" type="vecType" depart="20340">
        <route edges="-48211062#12 -48211062#11 -48211062#10 -48211062#9 -30029708#2 -30029708#1 -30029708#0 30030100#0 30030100#2 148846995 30030472 -24335487#2 -24335487#1 -24335487#0 -24335486#2 -24335486#1 -30035647#1 -91182067 -91182068 -100400942#1 -100400942#0 -100400944 -286003243#1 -84654238#5 -84654238#3 -84654238#2 -290052331 -24588081 228202845#2 377646102#0 377646102#2 225806056 283534317#0 283534317#1 283534317#2 255168047#0 255168047#3 254299142#7 p4#0"/>
    </vehicle>
    <vehicle id="331" type="vecType" depart="20400">
        <route edges="90077241 8921938 120813417 202485364 8915062 143617593 254758139#0 254758139#1 162931811#0 162931811#1 143617587 26943653#0 255330047#0 -131700725 27388400#0 52433698 37177689#10 -215524529"/>
    </vehicle>
    <vehicle id="332" type="vecType" depart="20400">
        <route edges="-242896157#0 -202485361#1 -99231486 364480601#0 283537380#0 283537380#1 283537380#2 8915351 50690291#0 50690291#1"/>
    </vehicle>
    <vehicle id="333" type="vecType" depart="20520">
        <route edges="-254297762#2 -254297762#0 -255168048#4 27570798#4 204968628 87297168 88396418#0 -88396418#0 -254758127#17 -254758127#16 -254758127#15 -254758127#14 -254758127#13 -254758127#12 -254758127#11 -254758127#9 -254758127#7 206662304#9 206662304#11 87297164#3 87297164#4 87297164#5 87297164#6 87297164#7 87297164#8 26938417 26938418#0 26938418#1 26938418#2 26938418#3 26938418#4 254758121#0 254758121#1 254758121#3 -254758121#3"/>
    </vehicle>
    <vehicle id="334" type="vecType" depart="20520">
        <route edges="31129765 123741465 8915117 27432609 157812260#7 157812260#8 157812260#9 157812260#10 157812260#11 -88572941 -88572932#2 -88572932#1 -88572932#0 -51392400 -51392402#0 -51392402#1 -111560680 86334994#0 111552058#0 88597544#0 88597544#2 224316522#0"/>
    </vehicle>
    <vehicle id="335" type="vecType" depart="20520">
        <route edges="-24310636#2 -24310636#1 -24310636#0 24335439#0 24335439#1 24335439#2 -27029263 -88572874#2 -88572874#1 -88572874#0 -88572887#1 -88572887#0 -88572914#2 -88572941 -88572932#2 -88572932#1 -88572932#0 -51392400 51392400"/>
    </vehicle>
    <vehicle id="336" type="vecType" depart="20640">
        <route edges="31129765 123741465 8915117 27432609 157812260#7 157812260#8 157812260#9 25657409#10 25657409#11 25657409#12 25657409#13 25657409#14 25657409#15 25657409#16 25657409#17 25657409#18 25657409#19 255168047#0 255168047#3 255168046#0 255168046#2 225518502#0 225518502#2 225518502#3 111049100#0 99231460 -99231486"/>
    </vehicle>
    <vehicle id="337" type="vecType" depart="20760">
        <route edges="144489137#0 144489137#1 144489137#2 144489137#3 144489137#7 254758131#0 254758131#2 254758132#0 254758132#2 290052332#1 290052332#4 -144489136 -204884397 -228196396 -204884387#2 -224384019#1 88597577#0 -88572877#6 -88572970 -256400251#1 256400244#0 225432462#0"/>
    </vehicle>
    <vehicle id="338" type="vecType" depart="20760">
        <route edges="191296172#0 191296172#1 -24335440#2 -24335440#1 -24335440#0 24335439#0 24335439#1 24335439#2 -27029263 -88572874#2 -88572874#1 -88572874#0 -88572887#1 -88572887#0 -88572914#2 -88572941 -88572932#2 -88572932#1 -88572932#0 -51392400 -51392402#0 -51392402#1 -111560680 86334994#0 111552058#0 88597544#0 88597544#2 224316520#0 224316520#1 254297759#0 224316521#0 224316521#1 -287958606#1 287958607#0 287958607#2"/>
    </vehicle>
    <vehicle id="339" type="vecType" depart="20820">
        <route edges="225806031#0 225806031#2 254759928#0 254759928#1 254759928#2 254759928#3 254759927#0 254759927#1 111547662#0 88572901#0 264874017#0 25657409#17 25657409#18 25657409#19 255168047#0 255168047#3 255168046#0 255168046#2 225518502#0 225518502#2 8919403#0"/>
    </vehicle>
    <vehicle id="340" type="vecType" depart="20820">
        <route edges="-204967525 -87297168 30029867#0 30029867#1 30029867#2 -30029708#2 -30029708#1 -30029708#0 30030100#0 30030100#2 148846995 148846996#0 148846996#1 148846996#2 -48211487#2 -48211487#1 -48211487#0 48211960 87376672#0 87376672#1 -91185877#1 -91185877#0 -254971056#1 -8922640#1 27054205#0 27054205#1 27054209#0 -254756526#1 -254396719#1 -254466686#4 27054213#4 27054213#6 91181774#0 8919020#0 88572905 91181770#0 283537380#0 283537380#1 283537380#2 8915351 50690291#0 50690291#1 gneE4 90077241 8921938 120813417"/>
    </vehicle>
    <vehicle id="341" type="vecType" depart="20820">
        <route edges="225806031#0 225806031#2 254759928#0 225847522#2 -263855294#3 -263855294#0 -35973460#1 -228215681 -225432464 -207761516 -204884121 -225806041 -225806042#1 -365816000 225806056 86334994#0 -88572965#1 -88572965#0 -88559669 -88572877#6 -88572970 -256400251#1 256400244#0 -99231475"/>
    </vehicle>
    <vehicle id="342" type="vecType" depart="20880">
        <route edges="-204884378#1 8919020#0 88572905 91181770#0 283537380#0 283537380#1 283537380#2 8915351 50690291#0 50690291#1"/>
    </vehicle>
    <vehicle id="343" type="vecType" depart="20880">
        <route edges="254396707#6 254396707#7 254396707#8 254758122#0 254758122#1 86303763#4 86303763#5 86303763#6 86303763#10 86303763#11 86303763#14 86303763#17 111586257 28841123#0 224316522#0 133733590#0 8918656#0 88572948#0 91181771#4"/>
    </vehicle>
    <vehicle id="344" type="vecType" depart="20880">
        <route edges="-254297762#2 -254297762#0 -255168048#4 -255168048#3 -255168048#2 -254299125 -254982299 -196831123#2 -196831123#1 -196831123#0 8922283#0 88142688#0 88142688#5 88142688#6 88142687#0 88142687#1 359898623#0 359898622#0 24335489#0 359898157#0 283512618#0 283512618#3 283512618#5 88463827#0 8916922#1 27397937 -27397937"/>
    </vehicle>
    <vehicle id="345" type="vecType" depart="20880">
        <route edges="191296172#0 191296172#1 25657409#0 25657409#2 25657409#3 25657409#4 25657409#5 25657409#7 25657409#9 25657409#10 25657409#11 25657409#12 25657409#13 25657409#14 25657409#15 25657409#16 25657409#17 25657409#18 25657409#19 255168047#0 255168047#3 255168046#0 255168046#2 225518502#0 329607867 27772070 202317709 50690291#0 50690291#1 gneE4 90077241 8921938 110361656 111319423 27397919"/>
    </vehicle>
    <vehicle id="346" type="vecType" depart="20880">
        <route edges="90077241 8921938 110361656 111319423 27397919 179235243#1 364480068#1 -225432462#1 225432457"/>
    </vehicle>
    <vehicle id="347" type="vecType" depart="20880">
        <route edges="31129765 123741465 8915117 8915115#0 8915115#1 254299118#0 254299118#1 254299118#2 254299118#3 254308548#0 254308548#2 186400365 143666207#0 254299117#0 254299117#1 88559680#0 8916551"/>
    </vehicle>
    <vehicle id="348" type="vecType" depart="20880">
        <route edges="-254297762#2 -254297762#0 -255168048#4 -255168048#3 34128718#1 -254299113#2 143666209#2 143666209#3 143666209#4 143666209#6 91185870#0 91185870#1 -30029708#0 30030100#0 30030100#2 148846995 148846996#0 148846996#1 148846996#2 -48211487#2 -48211487#1 -48211487#0 48211960 87376672#0 87376672#1 -91185877#1 -91185877#0 -254971056#1 -8922640#1 27054205#0 27054205#1 8916867#0 8916867#2 287958607#0 287958607#2 287958607#3 287958607#4 133733590#0"/>
    </vehicle>
    <vehicle id="349" type="vecType" depart="20880">
        <route edges="-24310636#2 111089307#1 111089307#2 191296172#1 25657409#0 25657409#2 25657409#3 25657409#4 25657409#5 25657409#7 25657409#9 25657409#10 25657409#11 25657409#12 25657409#13 25657409#14 25657409#15 25657409#16 25657409#17 25657409#18 25657409#19 255168047#0 255168047#3 255168046#0 255168046#2 225518502#0 225518502#2 225518502#3 111049100#0 99231460 -99231486"/>
    </vehicle>
    <vehicle id="350" type="vecType" depart="20880">
        <route edges="-27167281#1 247966218#0 247966218#3 247966218#4 247966218#5 247966218#6 247966218#7 -36331312#0 254299118#3 254308548#0 254308548#2 186400365 143666207#0 254299142#0 254299142#1 254299142#2 254299142#3 254299142#7 254299142#9 254299142#11 111552058#0 88597544#0 88597544#2 224316522#0"/>
    </vehicle>
    <vehicle id="351" type="vecType" depart="20880">
        <route edges="-254297762#2 -254297762#0 -255168048#4 -255168048#3 34128718#1 -254299113#2 143666209#2 143666209#3 143666209#4 143666209#6 91185870#0 91185870#1 -30029708#0 30030100#0 30030100#2 148846995 148846996#0 148846996#1 148846996#2 -48211487#2 -48211487#1 -48211487#0 48211960 87376672#0 87376672#1 -91185877#1 -91185877#0 -254971056#1 -8922640#1 27054205#0 27054205#1 8916867#0 8916867#2 287958607#0 287958607#2 287958607#3 287958607#4 133733590#0 -224384019#1 88597577#0 88559691#0 88559691#4 225518502#0"/>
    </vehicle>
    <vehicle id="352" type="vecType" depart="20880">
        <route edges="90077241 8921938 120813417 31129372 -35675861#0 -35675862 99231466 -175129396#1 -43100046 43100046"/>
    </vehicle>
    <vehicle id="353" type="vecType" depart="20880">
        <route edges="90077241 8921938 120813417 202485364 8915062 143617585#0 143617585#1 143617585#2 254305050#0 254305050#1 254308553 -247966218#8 -247966218#7 -247966218#6 -247966218#5 -247966218#4 247966218#4"/>
    </vehicle>
    <vehicle id="354" type="vecType" depart="20940">
        <route edges="-27029200#2 -27029200#1 27029246 25657409#0 25657409#2 25657409#3 25657409#4 25657409#5 25657409#7 25657409#9 25657409#10 25657409#11 25657409#12 25657409#13 25657409#14 25657409#15 25657409#16 25657409#17 25657409#18 25657409#19 255168047#0 255168047#3 255168046#0 255168046#2 225518502#0 225518502#2 225518502#3 111049100#0 364480069 364480068#0 364480068#1 -225432462#1 225432462#0"/>
    </vehicle>
    <vehicle id="355" type="vecType" depart="20940">
        <route edges="-204967525 -87297168 30029867#0 30029867#1 30029867#2 -30029708#2 -30029708#1 -30029708#0 30030100#0 30030100#2 148846995 148846996#0 148846996#1 148846996#2 -48211487#2 -48211487#1 -48211487#0 48211960 87376672#0 87376672#1 -91185877#1 -91185877#0 -254971056#1 8919205#17 8919205#18 8919205#21 8919205#24 47108420#0 47108420#3 47108420#4 28843496 30758839#0 30758839#1 8922560#0 8922560#1 8922560#3 8922560#4 283512618#0 283512618#3 283512618#5 88463827#0 24335490#0 88463829#0"/>
    </vehicle>
    <vehicle id="356" type="vecType" depart="20940">
        <route edges="27398045#1 27398045#2 27398045#3 27398045#4 27398045#5 27398045#6 27398045#7 8919058 8916882#0 -91181760#0 -100400946 -100400944 -286003243#1 -84654238#5 -84654238#3 -84654238#2 -290052331 290052332#1 290052332#4 -144489136 -204884397 -228196396 -204884387#2"/>
    </vehicle>
    <vehicle id="357" type="vecType" depart="20940">
        <route edges="8916767#0 8916767#1 146155388 -254758127#15 -48211062#11 -48211062#10 -48211062#9 -30029708#2 -30029708#1 -30029708#0 30030100#0 30030100#2 148846995 148846996#0 148846996#1 148846996#2 -48211487#2 -48211487#1 -48211487#0 48211960 87376672#0 87376672#1 -91185877#1 -91185877#0 -254971056#1 -8922640#1 27054205#0 27054205#1 27054209#0 -254756526#1 -254396719#1 -254466686#4 -254466686#3 -254466686#2 -254466686#1 -254466686#0 254396710#0 254396710#1 88597563#0 256400244#0 225432457 -99231486 364480601#0"/>
    </vehicle>
    <vehicle id="358" type="vecType" depart="20940">
        <route edges="23959829#0 23959829#1 -27029263 -88572874#2 -88572874#1 -88572874#0 -88572887#1 -88572887#0 -88572914#2 -88572941 -88572932#2 -88572932#1 -88572932#0 -51392400 -51392402#0 -51392402#1 -111560680 86334994#0 111552058#0 88597544#0 88597544#2 224316520#0 224316520#1 254297759#0 224316514#0"/>
    </vehicle>
    <vehicle id="359" type="vecType" depart="21000">
        <route edges="27167762 123741465 8915117 27432609 157812260#7 157812260#8 157812260#9 25657409#10 25657409#11 25657409#12 25657409#13 25657409#14 25657409#15 25657409#16 25657409#17 25657409#18 25657409#19 255168047#0 255168047#3 255168046#0 255168046#2 225518502#0 225518502#2 225518502#3 111049100#0 364480069 -364480069"/>
    </vehicle>
    <vehicle id="360" type="vecType" depart="21000">
        <route edges="8920934 8920281#2 -264874017#3 -264874017#2 -88572901#2 -111547662#2 26938124#0 26938124#1 8922164#2 8922164#3 8922164#4 8922164#5 8922164#6 254448252#0 254448252#1"/>
    </vehicle>
    <vehicle id="361" type="vecType" depart="21000">
        <route edges="31129765 123741465 8915117 27432609 157812260#7 157812260#8 157812260#9 25657409#10 25657409#11 25657409#12 25657409#13 25657409#14 25657409#15 25657409#16 25657409#17 25657409#18 25657409#19 255168047#0 255168047#3 255168046#0 255168046#2 225518502#0 225518502#2 225518502#3 111049100#0 99231460 -99231486"/>
    </vehicle>
    <vehicle id="362" type="vecType" depart="21000">
        <route edges="-254297762#2 -254297762#0 -255168048#4 -255168048#3 34128718#1 -254299113#2 143666209#2 143666209#3 143666209#4 143666209#6 91185870#0 91185870#1 -30029708#0 30030100#0 30030100#2 148846995 148846996#0 148846996#1 148846996#2 -48211487#2 -48211487#1 -48211487#0 48211960 87376672#0 87376672#1 -91185877#1 -91185877#0 -254971056#1 -8922640#1 27054205#0 27054205#1 8916867#0 8916867#2 287958607#0 287958607#2 287958607#3 287958607#4 133733590#0 -224384019#1 88597577#0 88559691#0 88559691#4 225518512#0"/>
    </vehicle>
    <vehicle id="363" type="vecType" depart="21060">
        <route edges="90077241 8921938 120813417 31129372 35675861#1 283537552#0 283537552#1 283537644#0 283537644#2 -225518512#1 225518512#0"/>
    </vehicle>
    <vehicle id="364" type="vecType" depart="21060">
        <route edges="90077241 8921938 110361656 111319423 27397919 179235243#1 364480068#1 364480068#2 88572881#0 88572881#3 88597575#0 88597553#1 88597553#2 -224316527"/>
    </vehicle>
    <vehicle id="365" type="vecType" depart="21060">
        <route edges="-160313263#1 52432938#0 52432938#1 255351721#0 27041554#0 27041554#1 8922234#0 8922234#2 -255330038#2 -255330038#1 -99231466 27397692 8918460#0 99231463#0 224373751 28319343#0 28319343#1 28319343#2 28319343#3 254756521#0 254756521#3 254756521#5 254756521#6 32931798#3 262943781"/>
    </vehicle>
    <vehicle id="366" type="vecType" depart="21060">
        <route edges="-133755930#1 -133755930#0 -27656675 26943623 133735130#0 133735130#2 133735130#4 254299142#0 254299142#1 254299142#2 254299142#3 254299142#7 254299142#9 254299142#11 111552058#0 88597544#0 88597544#2 224316520#0 224316520#1 254297759#0 224316521#0 224316521#1 -287958606#1 287958607#0"/>
    </vehicle>
    <vehicle id="367" type="vecType" depart="21120">
        <route edges="-27029200#2 -27029200#1 27029246 25657409#0 25657409#2 25657409#3 25657409#4 25657409#5 25657409#7 25657409#9 25657409#10 25657409#11 25657409#12 25657409#13 25657409#14 25657409#15 25657409#16 25657409#17 25657409#18 25657409#19 255168047#0 255168047#3 254299142#7 p4#0"/>
    </vehicle>
    <vehicle id="368" type="vecType" depart="21120">
        <route edges="-204967525 -87297168 30029867#0 30029867#1 30029867#2 -30029708#2 -30029708#1 -30029708#0 30030100#0 30030100#2 148846995 148846996#0 148846996#1 148846996#2 -48211487#2 -48211487#1 -48211487#0 48211960 87376672#0 87376672#1 -91185877#1 -91185877#0 -254971056#1 -8922640#1 27054205#0 27054205#1 27054209#0 -254756526#1 -254396719#1 -254466686#4 27054213#4 27054213#6 91181774#0 8919020#0 88572905 91181770#0 283537380#0 283537380#1 283537380#2 283537552#0"/>
    </vehicle>
    <vehicle id="369" type="vecType" depart="21120">
        <route edges="90077241 8921938 110361656 111319423 27397919 179235243#1 364480068#1 -225432462#1 -99231475 -254971064#1 -8916922#4 -8916922#2"/>
    </vehicle>
    <vehicle id="370" type="vecType" depart="21120">
        <route edges="-48211062#12 -48211062#11 -48211062#10 -48211062#9 -30029708#2 -30029708#1 -30029708#0 30030100#0 30030100#2 148846995 148846996#0 148846996#1 148846996#2 -48211487#2 -48211487#1 -48211487#0 48211960 87376672#0 87376672#1 -91185877#1 -91185877#0 -254971056#1 8919205#17 8919205#18 8919205#21 8919205#24 47108420#0 47108420#3 47108420#4 28843496 30758839#0 30758839#1 8922560#0 8922560#1 8922560#3 8922560#4 283512618#0 283512618#3 283512618#5 88463827#0 8916922#1 27397937 -27397937"/>
    </vehicle>
    <vehicle id="371" type="vecType" depart="21120">
        <route edges="90077241 8921938 110361656 111319423 27397919 179235243#1 364480068#1 -225432462#1 -99231475 -254971064#1 -8916922#4 27397937"/>
    </vehicle>
    <vehicle id="372" type="vecType" depart="21120">
        <route edges="-24310636#2 -24310636#1 -24310636#0 24335439#0"/>
    </vehicle>
    <vehicle id="373" type="vecType" depart="21180">
        <route edges="-30030485#0 148846998#0 148846998#1 148846995 30030472 -24335487#2 -24335487#1 -24335487#0 -24335486#2 -24335486#1 -30035647#1 -91182067 -91182068 -100400942#1 -100400942#0 100400946 27166466#0 27166466#2 27166466#3 254297761#0 254297761#2 254297761#4 254758128#0 254758128#1 254448247#0 -85789165 85789166#0 88572895#0 91181771#16 264874017#0 264874017#3 264874017#4 264874017#5 254305033#0 254305033#1 254305033#2 254305033#3 254305033#4 254305033#5 8915588 254299122 154966358"/>
    </vehicle>
    <vehicle id="374" type="vecType" depart="21180">
        <route edges="254396707#6 254396707#7 254396707#8 254758115#0 254758115#2 254758114#0 254758114#1 254758114#2 286003244#1 286003244#6 286003244#9 224316514#0 254306572#0 224316513#0 91181774#0 8919020#0 88572905 91181770#0 364480601#1"/>
    </vehicle>
    <vehicle id="375" type="vecType" depart="21180">
        <route edges="31129765 123741465 8915117 27432609 157812260#7 157812260#8 157812260#9 157812260#10 157812260#11 -88572941 -88572932#2 -88572932#1 -88572932#0 -51392400 -51392402#0 -51392402#1 -111560680 283534317#0 283534317#1 91181771#15"/>
    </vehicle>
    <vehicle id="376" type="vecType" depart="21180">
        <route edges="-27167281#1 247966218#0 247966218#3 247966218#4 247966218#5 247966218#6 247966218#7 247966218#8 141688972#0 141688972#1 141688972#2 255330036#0 255330036#3 255330036#4 255330036#5 255330036#7 -8919615#1 -8919615#0 8916553#1 -8916551 -88559680#2 -88559661#2 28842183 -283537644#1 -283537552#1 -283537552#0 -35675861#1 8922307 364480069 364480068#0 364480068#1 364480068#2 88572881#0 88572881#3 88597575#0 88597575#1 88597575#3 88597575#6 27398048#4 p3#0"/>
    </vehicle>
    <vehicle id="377" type="vecType" depart="21240">