<?xml version="1.0" encoding="UTF-8"?>
<routes>
    <vType id="passenger" vClass="passenger"/>
      <trip id="2404" from="84823308" to="-33789567" depart="0.00"/>
      <trip id="3302" from="31129765" to="8922291#0" depart="0.00"/>
      <trip id="3770" from="142972028#1" to="283537380#0" depart="0.00"/>
      <trip id="4055" from="-133781749" to="-27397692" depart="0.00"/>
      <trip id="4181" from="142972028#1" to="8916922#1" depart="0.00"/>
      <trip id="4802" from="-23883760" to="283537380#1" depart="0.00"/>
      <trip id="4888" from="225806031#0" to="8922307" depart="0.00"/>
      <trip id="5221" from="224384035#0" to="8921849#2" depart="0.00"/>
      <trip id="5355" from="31129765" to="30831808#0" depart="0.00"/>
      <trip id="5398" from="23959829#0" to="143617589#0" depart="0.00"/>
      <trip id="6422" from="90077241" to="91181771#0" depart="0.00"/>
      <trip id="6466" from="225806031#0" to="99231482" depart="0.00"/>
      <trip id="6644" from="-23883761" to="364480601#0" depart="0.00"/>
      <trip id="6953" from="90077241" to="91181771#5" depart="0.00"/>
      <trip id="7473" from="8916767#0" to="8915752" depart="0.00"/>
      <trip id="7871" from="-24310636#2" to="254299142#3" depart="0.00"/>
      <trip id="7877" from="90077241" to="-225518512#1" depart="0.00"/>
      <trip id="7879" from="224384035#0" to="225518512#0" depart="0.00"/>
      <trip id="7891" from="8916792" to="8916922#0" depart="0.00"/>
      <trip id="8247" from="254396707#6" to="47172745" depart="0.00"/>
      <trip id="8275" from="123867455" to="91181771#5" depart="0.00"/>
      <trip id="8619" from="27167762" to="35675861#1" depart="0.00"/>
      <trip id="9132" from="27398045#1" to="8916922#1" depart="0.00"/>
      <trip id="9774" from="133733582#2" to="8919338" depart="0.00"/>
      <trip id="9905" from="123867455" to="p4#0" depart="0.00"/>
      <trip id="10444" from="-23883761" to="99231468#0" depart="0.00"/>
      <trip id="10775" from="-24310636#2" to="27054213#6" depart="0.00"/>
      <trip id="11119" from="-8916048" to="179235223" depart="0.00"/>
      <trip id="11317" from="90077241" to="-8919616#1" depart="0.00"/>
      <trip id="11337" from="-35977367#2" to="224199014#0" depart="0.00"/>
      <trip id="11567" from="-91181760#0" to="206662304#13" depart="0.00"/>
      <trip id="11582" from="123867455" to="111089307#4" depart="0.00"/>
      <trip id="11994" from="84823308" to="32931798#1" depart="0.00"/>
      <trip id="12781" from="144489137#0" to="224316522#0" depart="0.00"/>
      <trip id="13861" from="-133755930#1" to="133733593#1" depart="0.00"/>
      <trip id="14823" from="191296172#0" to="47108420#4" depart="0.00"/>
      <trip id="15519" from="123867455" to="255330036#11" depart="0.00"/>
      <trip id="15834" from="27398045#1" to="-225518512#1" depart="0.00"/>
      <trip id="16672" from="142972028#1" to="-p3#1" depart="0.00"/>
      <trip id="17642" from="31129765" to="-88559661#0" depart="0.00"/>
      <trip id="18086" from="-206679802#4" to="-144489136" depart="0.00"/>
      <trip id="18185" from="144489137#0" to="88597553#2" depart="0.00"/>
      <trip id="18266" from="31129765" to="-99231475" depart="0.00"/>
      <trip id="18330" from="123867455" to="26988030#2" depart="0.00"/>
      <trip id="805" from="8915254" to="-254971068" depart="0.00"/>
      <trip id="1657" from="31129765" to="-43100739" depart="0.00"/>
      <trip id="3000" from="27388400#0" to="206662304#13" depart="0.00"/>
      <trip id="3693" from="90077241" to="225432462#0" depart="0.00"/>
      <trip id="4185" from="86303763#0" to="225518512#0" depart="0.00"/>
      <trip id="4545" from="254396707#6" to="27054213#4" depart="0.00"/>
      <trip id="4845" from="8915254" to="8916922#3" depart="0.00"/>
      <trip id="5012" from="30029172#0" to="154966358" depart="0.00"/>
      <trip id="5045" from="-27029200#2" to="-242896157#0" depart="0.00"/>
      <trip id="5662" from="-27570802#1" to="-8917425" depart="0.00"/>
      <trip id="5706" from="-204967525" to="8915752" depart="0.00"/>
      <trip id="6083" from="31129765" to="35675861#1" depart="0.00"/>
      <trip id="6508" from="111089307#0" to="8916922#0" depart="0.00"/>
      <trip id="7712" from="90077241" to="204884121" depart="0.00"/>
      <trip id="8374" from="-27029200#2" to="88466052#0" depart="0.00"/>
      <trip id="10512" from="8916792" to="247966218#3" depart="0.00"/>
      <trip id="11949" from="8916767#0" to="-37177689#5" depart="0.00"/>
      <trip id="12698" from="90077241" to="254306572#0" depart="0.00"/>
      <trip id="13227" from="-204967525" to="224199018#4" depart="0.00"/>
      <trip id="14079" from="28319343#2" to="50690291#1" depart="0.00"/>
      <trip id="15224" from="-27029204" to="111319423" depart="0.00"/>
      <trip id="15712" from="-206662304#13" to="99231463#0" depart="0.00"/>
      <trip id="15981" from="-24310636#2" to="35675861#0" depart="0.00"/>
      <trip id="16753" from="27167762" to="35675861#0" depart="0.00"/>
      <trip id="17329" from="-206679802#4" to="35675861#1" depart="0.00"/>
      <trip id="1720" from="255330036#13" to="24310636#2" depart="0.00"/>
      <trip id="2228" from="52432938#0" to="50690291#1" depart="0.00"/>
      <trip id="2380" from="224316521#3" to="91181767" depart="0.00"/>
      <trip id="2507" from="-204967525" to="254758122#4" depart="0.00"/>
</routes>