<?xml version="1.0" encoding="UTF-8"?>

<!-- generated on 2022-10-06 14:54:32.881883 by randomTrips.py v1_14_1+0000-f654d7b963e
<configuration>
    <begin value="0"/>
    <end value="20000"/>
    <net-file value="network.net.xml"/>
    <period value="1.0"/>
    <route-file value="elem.rou.xml"/>
    <output-trip-file value="trip.trips.xml"/>
    <vehicle-class value="passenger"/>
</configuration>
-->

<!-- generated on 2022-10-06 14:54:32 by Eclipse SUMO duarouter Version 1.14.1
<configuration xmlns:xsi="http://www.w3.org/2001/XMLSchema-instance" xsi:noNamespaceSchemaLocation="http://sumo.dlr.de/xsd/duarouterConfiguration.xsd">

    <input>
        <net-file value="network.net.xml"/>
        <route-files value="trip.trips.xml"/>
    </input>

    <output>
        <output-file value="elem.rou.xml"/>
        <alternatives-output value="NUL"/>
    </output>

    <time>
        <begin value="0"/>
        <end value="20000"/>
    </time>

    <report>
        <no-warnings value="true"/>
        <ignore-errors value="true"/>
        <no-step-log value="true"/>
    </report>

</configuration>
-->

<routes xmlns:xsi="http://www.w3.org/2001/XMLSchema-instance" xsi:noNamespaceSchemaLocation="http://sumo.dlr.de/xsd/routes_file.xsd">
    <vType id="passenger" vClass="passenger"/>
    <vehicle id="9" type="passenger" depart="9.00">
        <route edges="503829780#1 503829780#2 503829780#3 145317724#0 145317724#1 145317724#2 504262708#0 504262708#1 225253701 225252860#2 225252860#4 225252860#5 225252860#6 225252860#7 93860330#2 505246609 504721130#0 504721130#1 504721130#2 504721130#3 504721130#4 -117617883#6 -117617883#5 -117617883#4 -117617883#3 -117617883#2"/>
    </vehicle>
    <vehicle id="11" type="passenger" depart="11.00">
        <route edges="142237028#2 142237028#3 142237028#4 225285641 416979270 503984438 416979310#0 416979310#1 416979310#2 416979310#3 -225250599#2 -225250599#1 -225250599#0 -4075452#4 -35703000#2 -35703000#1"/>
    </vehicle>
    <vehicle id="13" type="passenger" depart="13.00">
        <route edges="-215452857#1 -215452857#0 117617883#5 117617883#6 504721128#1 504721128#2 504721128#3 504721128#4 504721128#5 504721128#6 504721128#7 22821614 22821615#0 22821615#1 225250599#0 225250599#1 225250599#2 -225250599#2"/>
    </vehicle>
    <vehicle id="14" type="passenger" depart="14.00">
        <route edges="504545426#2 504545426#3 -35703024#2 -35703024#1 -35703024#0 225252860#5 225252860#6 225264689 225264826#0 225264826#1"/>
    </vehicle>
    <vehicle id="17" type="passenger" depart="17.00">
        <route edges="176221677#1 176221677#2 176221677#3 176221677#5 176221677#6 145317724#1 145317724#2 504262708#0 504262708#1 225253701 225252860#2 225252860#4 225252860#5"/>
    </vehicle>
    <vehicle id="19" type="passenger" depart="19.00">
        <route edges="504721128#3 225251477#1 -4075452#3 225251624#2 -35703024#0 225252860#5 225252860#6 225252860#7 93860330#2 -93860331 505246608#0 225260886"/>
    </vehicle>
    <vehicle id="20" type="passenger" depart="20.00">
        <route edges="349204167#2 -145317724#3 -145317724#1 -145317724#0"/>
    </vehicle>
    <vehicle id="21" type="passenger" depart="21.00">
        <route edges="106813868 225234450#3 22821613#1 504545426#0 225252860#0 225252860#1 225252860#2 225252860#4 225252860#5 225252860#6 225252860#7 93860330#2 505246609 504721130#0 504721130#1 504721130#2 504721130#3 504721130#4 504721128#1 504721128#2 504721128#3 117619134#0 117619134#1 117619134#2"/>
    </vehicle>
    <vehicle id="23" type="passenger" depart="23.00">
        <route edges="-225250599#2 -225250599#1 -225250599#0 -4075452#4 -4075452#3 -4075452#2 -4075452#1 225251639#0 117618220#0 117618220#1 117618220#2 117618220#3 117618220#4 117618220#5 117618220#6"/>
    </vehicle>
    <vehicle id="25" type="passenger" depart="25.00">
        <route edges="176221674#3 176221674#4 108222334#2 108222334#4 108222334#5 108222334#7 106813877 353220743 503829779 417091715#0 417091715#2 417091715#4 417091715#5 417091715#8 -417091715#14 -417091715#7"/>
    </vehicle>
    <vehicle id="26" type="passenger" depart="26.00">
        <route edges="117617883#4 117617883#5 117617883#6 504721128#1 504721128#2 504721128#3 504721128#4 504721128#5 504721128#6 504721128#7 225234258#0 225234258#1 225234258#2 505512079#1 505512079#2 505512079#3 505512079#4 505512079#5"/>
    </vehicle>
    <vehicle id="28" type="passenger" depart="28.00">
        <route edges="-35703024#1 35703024#1 35703000#1 35703000#2 -4075452#3 4075452#3"/>
    </vehicle>
    <vehicle id="30" type="passenger" depart="30.00">
        <route edges="93860331 505246609 504721130#0 504721130#1 504721130#2 504721130#3 504721130#4 504721128#1 504721128#2 504721128#3 504721128#4 504721128#5 504721128#6 504721128#7 225234258#0 225234258#1 225234258#2 505512079#1 505512079#2 505512079#3 505512079#4 505512079#5 505512079#6 227333782 227335129#0 227335129#1"/>
    </vehicle>
    <vehicle id="33" type="passenger" depart="33.00">
        <route edges="106813868 225234450#3 349204167#0 349204167#1 349204167#2 349204167#3 505246601#0 505246601#1 -136412712#1 -136412712#0 505246610#0 505246610#1 505246610#2 184172252 136413595#0 -136413595#0"/>
    </vehicle>
    <vehicle id="36" type="passenger" depart="36.00">
        <route edges="504721130#0 504721130#1 504721130#2 117618220#0 136413906#0"/>
    </vehicle>
    <vehicle id="39" type="passenger" depart="39.00">
        <route edges="117617883#3 117617883#4 -117617883#4 -117617883#3 -117617883#2 -117617883#1 -117617883#0 117617883#0 117617883#1 117617883#2"/>
    </vehicle>
    <vehicle id="40" type="passenger" depart="40.00">
        <route edges="225252860#5 225252860#6 225252860#7 93860330#2 505246609 504721130#0 504721130#1 504721130#2 117618220#0"/>
    </vehicle>
    <vehicle id="41" type="passenger" depart="41.00">
        <route edges="225254322 504545426#0 225252860#0 -225253585 349204167#2 349204167#3 505246601#0 505246601#1 505246606#0 505246606#1"/>
    </vehicle>
    <vehicle id="43" type="passenger" depart="43.00">
        <route edges="975899777 93860330#0 225252613#0 4075452#0 4075452#1 4075452#2 4075452#3 4075452#4 225250599#0 225250599#1 225250599#2"/>
    </vehicle>
    <vehicle id="44" type="passenger" depart="44.00">
        <route edges="-215452857#0 117617883#5 117617883#6 225251624#1 225251624#2 -35703024#0 225264599#0 225264599#2 505246604#0 505246604#1 504262708#0 504262708#1 504262708#2 349204167#2 -145317724#3 -145317724#1"/>
    </vehicle>
    <vehicle id="45" type="passenger" depart="45.00">
        <route edges="-225263286 176221674#3 176221674#4 108222334#2 108222334#4 108222334#5 108222334#7 911576212#0 911576212#1 22821613#1 504545426#0 504545426#1 504545426#2 504545426#3 504545426#4 225234386 106813874 225234258#0 225234258#1 225234258#2 505512079#1 505512079#2 505512079#3 505512079#4 505512079#5 505512079#6 227333782 227335129#0 -227335069#3 -227335069#2 -227335069#1 -227335069#0 227335069#0"/>
    </vehicle>
    <vehicle id="48" type="passenger" depart="48.00">
        <route edges="975452513 108222334#0 108222334#2 108222334#4 108222334#5 108222334#7 911576212#0 911576212#1 22821613#1 504545426#0 225252860#0 225252860#1 225252860#2 225252860#4 225252613#4"/>
    </vehicle>
    <vehicle id="50" type="passenger" depart="50.00">
        <route edges="-117617883#4 -117617883#3 117617883#3 117617883#4 117617883#5 117617883#6 225251624#1 -4075452#2 -4075452#1 -4075452#0 4075452#0"/>
    </vehicle>
    <vehicle id="52" type="passenger" depart="52.00">
        <route edges="117617883#4 117617883#5 117617883#6 504721128#1 504721128#2 504721128#3 504721128#4 504721128#5 504721128#6 504721128#7 225234258#0 225234258#1 225234258#2 505512079#1 505512079#2 505512079#3 505512079#4 505512079#5 505512079#6 227333782 227335129#0 227335129#1"/>
    </vehicle>
    <vehicle id="53" type="passenger" depart="53.00">
        <route edges="-225263552 176221674#1 176221674#3 176221674#4 108222334#2 108222334#4 108222334#5 108222334#7 911576212#0 911576212#1 22821613#1 504545426#0 504545426#1 504545426#2 504545426#3 504545426#4 225234386 106813874 225234258#0 225234258#1 225234258#2 505512079#1 505512079#2 505512079#3 505512079#4 505512079#5 213094682"/>
    </vehicle>
    <vehicle id="55" type="passenger" depart="55.00">
        <route edges="504721130#0 504721130#1 504721130#2 117618220#0 117618220#1"/>
    </vehicle>
    <vehicle id="56" type="passenger" depart="56.00">
        <route edges="225235844#1 117618220#2 -215452857#1 -215452857#0 117617883#5 117617883#6 504721128#1 504721128#2 504721128#3 225251477#1 -4075452#3"/>
    </vehicle>
    <vehicle id="57" type="passenger" depart="57.00">
        <route edges="505246609 504721130#0"/>
    </vehicle>
    <vehicle id="58" type="passenger" depart="58.00">
        <route edges="117619134#0 117619134#1 117619134#2 -117619134#2 -117619134#1 -117619134#0 504721128#4 504721128#5 504721128#6 504721128#7 225234258#0 225234258#1 225234258#2 505512079#1 505512079#2 505512079#3 505512079#4 505512079#5 505512079#6 227333782 227335129#0"/>
    </vehicle>
    <vehicle id="59" type="passenger" depart="59.00">
        <route edges="225264826#2 225264826#3 225264826#4 225264826#5 225264599#2 505246604#0 505246604#1 504262708#0 504262708#1 504262708#2 504262708#3 225254322 504545426#0 504545426#1 504545426#2 504545426#3 -35703024#2 -35703000#0"/>
    </vehicle>
    <vehicle id="60" type="passenger" depart="60.00">
        <route edges="416979288#0 416979288#1 416979288#2 416979288#3 -416979288#3 -416979288#2 -416979288#1 -416979288#0 225285641 416979270 503984438 416979310#0 416979310#1 416979310#2 416979310#3 -225250599#2 -225250599#1 -225250599#0 -4075452#4 -35703000#2 -35703000#1 -35703000#0 225252613#5 225252613#7 225252750"/>
    </vehicle>
    <vehicle id="61" type="passenger" depart="61.00">
        <route edges="416979310#0 416979310#1 416979310#2 416979310#3 -225250599#2 -225250599#1 -225250599#0 -4075452#4 -4075452#3 -4075452#2 225253279 225252613#3 225252613#4"/>
    </vehicle>
    <vehicle id="63" type="passenger" depart="63.00">
        <route edges="-117619134#0 504721128#4 504721128#5 504721128#6 504721128#7 225234258#0 225234258#1 225234258#2 505512079#1 505512079#2"/>
    </vehicle>
    <vehicle id="64" type="passenger" depart="64.00">
        <route edges="504721130#1 975899777 93860330#0 93860330#1 93860330#2 -93860331 505246608#0 505246608#1 505246604#0 505246604#1 504262708#0 504262708#1 504262708#2"/>
    </vehicle>
    <vehicle id="67" type="passenger" depart="67.00">
        <route edges="-213094160#3 -213094160#2 -213094160#1 -213094160#0 213093942 -416979288#5 -416979288#3 -416979288#2 -416979288#1 -416979288#0 225285641 416979270 503984438 416979310#0 416979310#1 416979310#2 416979310#3 -225250599#2 -225250599#1 -225250599#0 225234386 106813874 225234258#0 225234258#1 225234258#2 225234836"/>
    </vehicle>
    <vehicle id="69" type="passenger" depart="69.00">
        <route edges="416979288#1 416979288#2 416979288#3 -416979288#3 -416979288#2 -416979288#1 -416979288#0 225285641 416979270 503984438 416979310#0 416979310#1 416979310#2 416979310#3 213094623#0 213094623#1 505512079#5 505512079#6 227333782 227335129#0 -227335069#3 -227335069#2 -227335069#1"/>
    </vehicle>
    <vehicle id="70" type="passenger" depart="70.00">
        <route edges="225234386 106813874 22821614 22821615#0 22821615#1 -4075452#4 -4075452#3 225251624#2 -35703024#0 225264599#0 225264599#2 505246604#0 505246604#1 504262708#0 504262708#1 225253701 225252860#2 225252860#4"/>
    </vehicle>
    <vehicle id="71" type="passenger" depart="71.00">
        <route edges="117617883#3 117617883#4 117617883#5 117617883#6 225251624#1 225251624#2 -35703024#0 225252860#5 225252860#6 225252860#7 93860330#2 505246609 504721130#0"/>
    </vehicle>
    <vehicle id="73" type="passenger" depart="73.00">
        <route edges="225252613#4 35703000#0 35703000#1 35703000#2 -4075452#3 4075452#3"/>
    </vehicle>
    <vehicle id="74" type="passenger" depart="74.00">
        <route edges="-416979288#3 -416979288#2 -416979288#1 -416979288#0 225285641 910505520 331273136#0 331273136#1 915572553 510110912 510110912-AddedOffRampEdge 106813868 225234450#3 349204167#0 349204167#1 349204167#2 349204167#3 505246601#0 505246601#1 -136412712#1 -136412712#0 505246610#0 505246610#1 505246610#2 184172252 136413595#0 136413595#3 136413595#4 136413595#5 136413595#6 136413595#8"/>
    </vehicle>
    <vehicle id="75" type="passenger" depart="75.00">
        <route edges="975452513 108222334#0 108222334#2 108222334#4 108222334#5 108222334#7 911576212#0 911576212#1 22821613#1"/>
    </vehicle>
    <vehicle id="78" type="passenger" depart="78.00">
        <route edges="142237028#1 142237028#2 142237028#3 142237028#4 225285641 910505520 331273136#0 331273136#1 915572553 510110912 510110912-AddedOffRampEdge 106813868 225234450#3 349204167#0 349204167#1 349204167#2 -145317724#3 -145317724#1 -145317724#0 504262703#0 504262703#1 225263689#0 225263689#1"/>
    </vehicle>
    <vehicle id="79" type="passenger" depart="79.00">
        <route edges="106813868 225234450#3 22821613#1 504545426#0 504545426#1 504545426#2 504545426#3 504545426#4 225234386 106813874"/>
    </vehicle>
    <vehicle id="81" type="passenger" depart="81.00">
        <route edges="106813868 225234450#3 22821613#1 504545426#0 225252860#0 225252860#1 225252860#2 225252860#4 225252860#5 225252860#6 225252860#7 93860330#2 -93860331 505246608#0"/>
    </vehicle>
    <vehicle id="83" type="passenger" depart="83.00">
        <route edges="108222334#0 108222334#2 108222334#4 108222334#5 108222334#7 106813877 353220743 417155312#0 417155312#1 254698716#0 254698716#1"/>
    </vehicle>
    <vehicle id="88" type="passenger" depart="88.00">
        <route edges="-225250599#0 225250599#0 225250599#1 225250599#2 213094623#0 213094623#1"/>
    </vehicle>
    <vehicle id="91" type="passenger" depart="91.00">
        <route edges="93860330#1 93860330#2 -93860331 505246608#0 505246608#1 505246604#0 505246604#1 504262708#0 504262708#1 504262708#2 225253585 -225253585"/>
    </vehicle>
    <vehicle id="93" type="passenger" depart="93.00">
        <route edges="504721128#3 225251477#1 -4075452#3 -4075452#2 -4075452#1 225251639#0 504721130#3 504721130#4 -117617883#6 -117617883#5 -117617883#4 -117617883#3 -117617883#2 -117617883#1 -117617883#0 117617883#0 117617883#1 117617883#2"/>
    </vehicle>
    <vehicle id="94" type="passenger" depart="94.00">
        <route edges="-416979288#0 225285641 416979270 503984438 416979310#0 416979310#1 416979310#2 416979310#3 -225250599#2 -225250599#1 -225250599#0 -4075452#4 -4075452#3 -4075452#2 -4075452#1 225251639#0 117618220#0 136413906#0 136413906#1 213496896#0 213496896#1 213496896#2 213496896#3 213496896#4"/>
    </vehicle>
    <vehicle id="96" type="passenger" depart="96.00">
        <route edges="108222334#7 911576212#0 349204164#0 349204164#1 349204167#0 349204167#1 349204167#2 349204167#3 505246601#0 505246601#1 -136412712#1 -136412712#0 505246610#0 505246610#1 505246610#2 505246610#3 505246610#4"/>
    </vehicle>
    <vehicle id="98" type="passenger" depart="98.00">
        <route edges="225252860#0 -225253585 349204167#2 -145317724#3"/>
    </vehicle>
    <vehicle id="99" type="passenger" depart="99.00">
        <route edges="975899777 93860330#0 93860330#1 93860330#2 -93860331 505246608#0 505246608#1 505246604#0 505246604#1 504262708#0 504262708#1 504262708#2 504262708#3"/>
    </vehicle>
    <vehicle id="100" type="passenger" depart="100.00">
        <route edges="911576212#1 22821613#1 504545426#0 504545426#1 504545426#2 504545426#3 504545426#4 225234386 106813874 225234258#0 225234258#1 225234258#2 505512079#1"/>
    </vehicle>
    <vehicle id="101" type="passenger" depart="101.00">
        <route edges="504545426#2 504545426#3 -35703024#2"/>
    </vehicle>
    <vehicle id="102" type="passenger" depart="102.00">
        <route edges="225234450#2 225234450#3 22821613#1 504545426#0 225252860#0 225252860#1 225252860#2 225252860#4 225252860#5 225252860#6 225252860#7 93860330#2 -93860331"/>
    </vehicle>
    <vehicle id="103" type="passenger" depart="103.00">
        <route edges="184172252 136413595#0 -184172251#2 -184172251#1 -184172251#0"/>
    </vehicle>
    <vehicle id="104" type="passenger" depart="104.00">
        <route edges="176221677#1 176221677#2 176221677#3 176221677#5 176221677#6 145317724#1 145317724#2 504262708#0 504262708#1 225253701 225252860#2 225252860#4 225252860#5 225252860#6 225252860#7 93860330#2 505246609 504721130#0 504721130#1 975899777 93860330#0 93860330#1"/>
    </vehicle>
    <vehicle id="105" type="passenger" depart="105.00">
        <route edges="117617883#3 117617883#4 117617883#5 117617883#6 225251624#1 225251624#2 -35703024#0 225264599#0 225264599#2 505246604#0 505246604#1 504262708#0 504262708#1 504262708#2 504262708#3 413335912#0 413325284 353220743 503829779 417091715#0 417091715#2 417091715#4"/>
    </vehicle>
    <vehicle id="106" type="passenger" depart="106.00">
        <route edges="213496896#3 213496896#4 -215452857#1 -215452857#0 117617883#5 117617883#6 504721128#1 504721128#2 504721128#3 504721128#4 504721128#5 504721128#6 504721128#7 22821614 22821615#0 22821615#1 225250599#0 225250599#1 225250599#2 213094620#1"/>
    </vehicle>
    <vehicle id="108" type="passenger" depart="108.00">
        <route edges="225252860#2 225253947 504262708#1 504262708#2 504262708#3 413335912#0 413325284 353220743 503829779 37621026"/>
    </vehicle>
    <vehicle id="113" type="passenger" depart="113.00">
        <route edges="225236846#0 225236846#1 117617883#0 117617883#1 117617883#2 117617883#3 117617883#4 117617883#5 117617883#6 504721128#1"/>
    </vehicle>
    <vehicle id="114" type="passenger" depart="114.00">
        <route edges="-262748078 176221674#4 108222334#2 108222334#4 108222334#5 108222334#7 106813877 353220743 417155312#0 736863689#1"/>
    </vehicle>
    <vehicle id="115" type="passenger" depart="115.00">
        <route edges="-213094160#1 -213094160#0 213093942 -416979288#5 -416979288#3 -416979288#2 -416979288#1"/>
    </vehicle>
    <vehicle id="121" type="passenger" depart="121.00">
        <route edges="225251624#1 4075452#3 4075452#4 225234386 106813874 225234258#0 225234258#1 225234258#2 505512079#1 505512079#2 505512079#3 505512079#4"/>
    </vehicle>
    <vehicle id="122" type="passenger" depart="122.00">
        <route edges="-416979288#5 -416979288#3 -416979288#2 -416979288#1 -416979288#0 225285641 416979270 503984438 416979310#0 416979310#1 416979310#2 416979310#3 -225250599#2 -225250599#1 -225250599#0 -4075452#4 -35703000#2 -35703000#1 35703024#2"/>
    </vehicle>
    <vehicle id="123" type="passenger" depart="123.00">
        <route edges="108222334#0 108222334#2 108222334#4 108222334#5 108222334#7 911576212#0 911576212#1 22821613#1 504545426#0 225252860#0 225252860#1 225252860#2 225252860#4 225252860#5 225252860#6 225252860#7 93860330#2 505246609 504721130#0 504721130#1 504721130#2 504721130#3 504721130#4 -117617883#6 -117617883#5 215452857#0 207797582#0"/>
    </vehicle>
    <vehicle id="124" type="passenger" depart="124.00">
        <route edges="25412911#0 25412911#1 504721130#0 504721130#1 975899777 93860330#0 93860330#1 93860330#2 -93860331 505246608#0 225260886 -136412712#1 -136412712#0 505246610#0 505246610#1 505246610#2 184172252 136413595#0 136413595#3"/>
    </vehicle>
    <vehicle id="128" type="passenger" depart="128.00">
        <route edges="-184172252 184172252 -656196525"/>
    </vehicle>
    <vehicle id="129" type="passenger" depart="129.00">
        <route edges="117617883#3 117617883#4 117617883#5 117617883#6 504721128#1 504721128#2 504721128#3 504721128#4 504721128#5 504721128#6 504721128#7 225234258#0 225234258#1 225234258#2 505512079#1 505512079#2 505512079#3"/>
    </vehicle>
    <vehicle id="130" type="passenger" depart="130.00">
        <route edges="504721130#2 504721130#3"/>
    </vehicle>
    <vehicle id="131" type="passenger" depart="131.00">
        <route edges="176221674#3 176221674#4 108222334#2 108222334#4 108222334#5 108222334#7 911576212#0 911576212#1 22821613#1 504545426#0 504545426#1 504545426#2 504545426#3 504545426#4 -4075452#4 -35703000#2 -35703000#1"/>
    </vehicle>
    <vehicle id="132" type="passenger" depart="132.00">
        <route edges="504262708#1 225253701 225252860#2 225252860#4 225252613#4 35703000#0"/>
    </vehicle>
    <vehicle id="133" type="passenger" depart="133.00">
        <route edges="225264826#3 225264826#4 225264826#5 225264599#2 505246604#0 505246604#1 504262708#0 504262708#1 225253701 225252860#2 225252860#4 225252860#5 225252860#6 225252860#7 93860330#2"/>
    </vehicle>
    <vehicle id="135" type="passenger" depart="135.00">
        <route edges="503984438 416979310#0 416979310#1 416979310#2 416979310#3 -225250599#2 -225250599#1 -225250599#0 -4075452#4 -4075452#3 225251624#2 -35703024#0 225264599#0 225264599#2 505246601#0 505246601#1 -136412712#1 -136412712#0 505246610#0 505246610#1 505246610#2 184172252 136413595#0 136413595#3"/>
    </vehicle>
    <vehicle id="136" type="passenger" depart="136.00">
        <route edges="22821614 22821615#0 22821615#1 225250599#0 225250599#1 225250599#2 213094623#0 213094623#1 505512079#5"/>
    </vehicle>
    <vehicle id="138" type="passenger" depart="138.00">
        <route edges="-225253746 504545426#3 -35703024#2 -35703024#1 -35703024#0 225252860#5"/>
    </vehicle>
    <vehicle id="139" type="passenger" depart="139.00">
        <route edges="117617883#6 225251624#1 225251624#2 -35703024#0 225252860#5 225252860#6 225264689 225264826#0 225264826#1 225264826#2"/>
    </vehicle>
    <vehicle id="140" type="passenger" depart="140.00">
        <route edges="35703000#2 -4075452#3 225251624#2 -35703024#0 225264599#0 225264599#2 505246604#0 505246604#1 504262708#0 504262708#1 504262708#2 504262708#3 413335912#0 413325284 353220743 503829779 417091715#0 417091715#2 417091715#4 417091715#5 417091715#8 -417091715#14 -417091715#7 -417091715#4 -417091715#2"/>
    </vehicle>
    <vehicle id="142" type="passenger" depart="142.00">
        <route edges="225234450#3 22821613#1 504545426#0 225252860#0 225252860#1 225252860#2 225252860#4 225252860#5 225252860#6 225252860#7 93860330#2 -93860331 505246608#0"/>
    </vehicle>
    <vehicle id="143" type="passenger" depart="143.00">
        <route edges="504545426#1 504545426#2 504545426#3 504545426#4 225250599#0 225250599#1 225250599#2 -225250599#2 -225250599#1"/>
    </vehicle>
    <vehicle id="147" type="passenger" depart="147.00">
        <route edges="4075452#3 -4075452#3 225251624#2 -35703024#0 225252860#5"/>
    </vehicle>
    <vehicle id="149" type="passenger" depart="149.00">
        <route edges="-213094160#0 213093942 -416979288#5 -416979288#3 -416979288#2 -416979288#1 -416979288#0 225285641 416979270 503984438 416979310#0 416979310#1 416979310#2 416979310#3 -225250599#2 -225250599#1 -225250599#0 -4075452#4 -4075452#3 -4075452#2 -4075452#1 225251639#0 504721130#3 504721130#4"/>
    </vehicle>
    <vehicle id="152" type="passenger" depart="152.00">
        <route edges="-227335129#1 -227335069#3 -227335069#2 -227335069#1"/>
    </vehicle>
    <vehicle id="153" type="passenger" depart="153.00">
        <route edges="136412712#1 505246606#0 505246606#1"/>
    </vehicle>
    <vehicle id="155" type="passenger" depart="155.00">
        <route edges="505246604#1 504262708#0 504262708#1 504262708#2 504262708#3 413335912#0 413325284 353220743 503829779 417091715#0 417091715#2 417091715#4 417091715#5 417091715#8 -417091715#14 -417091715#7"/>
    </vehicle>
    <vehicle id="156" type="passenger" depart="156.00">
        <route edges="108222334#7 911576212#0 911576212#1 22821613#1 504545426#0 225252860#0 225252860#1 225252860#2 225252860#4 225264599#0 -225264826#5 -225264826#4 -225264826#3 -225264826#2 -225264826#1 -225264826#0"/>
    </vehicle>
    <vehicle id="157" type="passenger" depart="157.00">
        <route edges="416979310#0 416979310#1 416979310#2 416979310#3 -225250599#2 -225250599#1 -225250599#0 -4075452#4 -4075452#3 225251624#2 -35703024#0 225264599#0 225264599#2 505246601#0"/>
    </vehicle>
    <vehicle id="158" type="passenger" depart="158.00">
        <route edges="207797582#1 504721130#4 -117617883#6 -117617883#5 -117617883#4 -117617883#3 -117617883#2 -117617883#1 -117617883#0 -226562600#2 226562600#2"/>
    </vehicle>
    <vehicle id="161" type="passenger" depart="161.00">
        <route edges="503829780#1 503829780#2 503829780#3 145317724#0 145317724#1 145317724#2 504262708#0 504262708#1 225253701 225252860#2 225252860#4 225252860#5 225252860#6 225252860#7 93860330#2 505246609 504721130#0 504721130#1 504721130#2 504721130#3 504721130#4"/>
    </vehicle>
    <vehicle id="162" type="passenger" depart="162.00">
        <route edges="-117619134#1 -117619134#0 225251477#1 -4075452#3 225251624#2 -35703024#0 225264599#0 225264599#2 505246604#0 505246604#1 504262708#0 504262708#1 504262708#2 504262708#3 413335912#0 413325284"/>
    </vehicle>
    <vehicle id="165" type="passenger" depart="165.00">
        <route edges="503829780#1 503829780#2 503829780#3 145317724#0 145317724#1 145317724#2 504262708#0 504262708#1 225253701 225252860#2 225252860#4 225252860#5 225252860#6 225252860#7 93860330#2 505246609 504721130#0 504721130#1 504721130#2 117618220#0 117618220#1 117618220#2"/>
    </vehicle>
    <vehicle id="166" type="passenger" depart="166.00">
        <route edges="416979310#3 -225250599#2 -225250599#1 -225250599#0 -4075452#4 -4075452#3 225251624#2 -35703024#0 225264599#0 -225264826#5 -225264826#4 -225264826#3 -225264826#2"/>
    </vehicle>
    <vehicle id="167" type="passenger" depart="167.00">
        <route edges="504721128#6 504721128#7 22821614 22821615#0 22821615#1 -4075452#4 -4075452#3 -4075452#2 -4075452#1 225251639#0 504721130#3 504721130#4 504721128#1 504721128#2 504721128#3"/>
    </vehicle>
    <vehicle id="169" type="passenger" depart="169.00">
        <route edges="215447298 117618220#6 117618220#7 225236846#0 225236846#1 117617883#0 117617883#1 117617883#2 117617883#3 117617883#4 117617883#5 117617883#6 225251624#1 225251624#2 -35703024#0 225264599#0 225264599#2 505246601#0 505246601#1 -136412712#1 -136412712#0 505246610#0 505246610#1 505246610#2 184172252 136413595#0 136413595#3 136413595#4 136413595#5"/>
    </vehicle>
    <vehicle id="172" type="passenger" depart="172.00">
        <route edges="137390369 331273136#0 331273136#1 510110913#2 503984438 416979310#0 416979310#1 416979310#2 416979310#3 -225250599#2 -225250599#1 -225250599#0 -4075452#4 -4075452#3 -4075452#2 -4075452#1 225251639#0 504721130#3 504721130#4 504721128#1 504721128#2 504721128#3 504721128#4 504721128#5 504721128#6"/>
    </vehicle>
    <vehicle id="173" type="passenger" depart="173.00">
        <route edges="911576212#1 22821613#1 504545426#0 225252860#0 225252860#1 225252860#2 225252860#4 225252860#5 225252860#6 225252860#7 93860330#2 505246609 504721130#0 504721130#1 504721130#2 117618220#0 117618220#1 117618220#2 117618220#3 117618220#4 117618220#5 117618220#6"/>
    </vehicle>
    <vehicle id="175" type="passenger" depart="175.00">
        <route edges="93860330#0 225252613#0 225252613#2 225252613#3 225252613#4 225252613#5 225252613#7"/>
    </vehicle>
    <vehicle id="178" type="passenger" depart="178.00">
        <route edges="910505520 331273136#0 331273136#1 510110913#2 503984438 416979310#0 416979310#1 416979310#2 416979310#3 -225250599#2 -225250599#1 -225250599#0 -4075452#4 -4075452#3 -4075452#2 -4075452#1 225251639#0 117618220#0 117618220#1"/>
    </vehicle>
    <vehicle id="179" type="passenger" depart="179.00">
        <route edges="-225263286 176221674#3 176221674#4 108222334#2 108222334#4 108222334#5 108222334#7 911576212#0 911576212#1 22821613#1 504545426#0 504545426#1 504545426#2 504545426#3 504545426#4 225234386 106813874 225234258#0 225234258#1 225234258#2 505512079#1 505512079#2 505512079#3 505512079#4 505512079#5 213094682"/>
    </vehicle>
    <vehicle id="181" type="passenger" depart="181.00">
        <route edges="225264826#1 225264826#2 225264826#3 225264826#4 225264826#5 225264599#2 505246604#0 505246604#1 504262708#0 504262708#1 225253701 225252860#2 225252860#4 225252860#5 225252860#6 225252860#7 93860330#2 505246609 504721130#0 504721130#1 504721130#2 504721130#3 504721130#4 504721128#1 504721128#2 504721128#3 225251477#1"/>
    </vehicle>
    <vehicle id="182" type="passenger" depart="182.00">
        <route edges="176221677#3 176221677#5 176221677#6 145317724#1 145317724#2 504262708#0 504262708#1 225253701 225252860#2 225252860#4 225252860#5 225252860#6 225252860#7 93860330#2 -93860331 505246608#0 225260886"/>
    </vehicle>
    <vehicle id="183" type="passenger" depart="183.00">
        <route edges="108222343#1 254698715#0 975452513 108222334#0 108222334#2 108222334#4 108222334#5 108222334#7 911576212#0 911576212#1 22821613#1 504545426#0 504545426#1 504545426#2 504545426#3 -35703024#2 35703000#1 35703000#2"/>
    </vehicle>
    <vehicle id="184" type="passenger" depart="184.00">
        <route edges="-117617883#0 117617883#0 117617883#1 117617883#2 117617883#3 117617883#4 117617883#5 117617883#6 504721128#1 504721128#2 504721128#3 504721128#4 504721128#5 504721128#6 504721128#7 225234258#0 225234258#1 225234258#2 505512079#1"/>
    </vehicle>
    <vehicle id="185" type="passenger" depart="185.00">
        <route edges="225252613#3 225264599#0 225264599#2 505246604#0 505246604#1 504262708#0 504262708#1 504262708#2 504262708#3 413335912#0 413325284 353220743 503829779 37621026"/>
    </vehicle>
    <vehicle id="186" type="passenger" depart="186.00">
        <route edges="4075452#4 -4075452#4 -4075452#3 225251624#2 -35703024#0 225264599#0 225264599#2 505246604#0 505246604#1 504262708#0 504262708#1 504262708#2 504262708#3 413335912#0 413325284 353220743 417155312#0 417155312#1 254698716#0 254698716#1 254698716#2"/>
    </vehicle>
    <vehicle id="190" type="passenger" depart="190.00">