<?xml version="1.0" encoding="UTF-8"?>

<!-- generated on 2022-10-03 15:23:14 by Eclipse SUMO netconvert Version 1.14.1
<configuration xmlns:xsi="http://www.w3.org/2001/XMLSchema-instance" xsi:noNamespaceSchemaLocation="http://sumo.dlr.de/xsd/netconvertConfiguration.xsd">

    <input>
        <type-files value="C:\Program%20Files%20(x86)\Eclipse\Sumo\data\typemap\osmNetconvert.typ.xml"/>
        <osm-files value="osm_bbox.osm.xml.gz"/>
    </input>

    <output>
        <output-file value="osm.net.xml"/>
        <output.street-names value="true"/>
        <output.original-names value="true"/>
    </output>

    <projection>
        <proj.utm value="true"/>
    </projection>

    <processing>
        <geometry.remove value="true"/>
        <roundabouts.guess value="true"/>
    </processing>

    <tls_building>
        <tls.discard-simple value="true"/>
        <tls.join value="true"/>
        <tls.guess-signals value="true"/>
        <tls.default-type value="actuated"/>
    </tls_building>

    <ramp_guessing>
        <ramps.guess value="true"/>
    </ramp_guessing>

    <junctions>
        <junctions.join value="true"/>
        <junctions.corner-detail value="5"/>
    </junctions>

    <report>
        <verbose value="true"/>
    </report>

</configuration>
-->

<net version="1.9" junctionCornerDetail="5" limitTurnSpeed="5.50" xmlns:xsi="http://www.w3.org/2001/XMLSchema-instance" xsi:noNamespaceSchemaLocation="http://sumo.dlr.de/xsd/net_file.xsd">

    <location netOffset="-429079.44,-4518498.41" convBoundary="0.00,0.00,4990.80,2400.11" origBoundary="14.159043,40.814275,14.218083,40.836255" projParameter="+proj=utm +zone=33 +ellps=WGS84 +datum=WGS84 +units=m +no_defs"/>

    <type id="highway.bridleway" priority="1" numLanes="1" speed="2.78" allow="pedestrian" oneway="1" width="2.00"/>
    <type id="highway.bus_guideway" priority="1" numLanes="1" speed="27.78" allow="bus" oneway="1"/>
    <type id="highway.cycleway" priority="1" numLanes="1" speed="5.56" allow="bicycle" oneway="0" width="1.00"/>
    <type id="highway.footway" priority="1" numLanes="1" speed="2.78" allow="pedestrian" oneway="1" width="2.00"/>
    <type id="highway.ford" priority="1" numLanes="1" speed="2.78" allow="army" oneway="0"/>
    <type id="highway.living_street" priority="2" numLanes="1" speed="2.78" disallow="tram rail_urban rail rail_electric rail_fast ship" oneway="0"/>
    <type id="highway.motorway" priority="14" numLanes="2" speed="39.44" allow="private emergency authority army vip passenger hov taxi bus coach delivery truck trailer motorcycle evehicle custom1 custom2" oneway="1"/>
    <type id="highway.motorway_link" priority="9" numLanes="1" speed="22.22" allow="private emergency authority army vip passenger hov taxi bus coach delivery truck trailer motorcycle evehicle custom1 custom2" oneway="1"/>
    <type id="highway.path" priority="1" numLanes="1" speed="5.56" allow="pedestrian bicycle" oneway="0" width="2.00"/>
    <type id="highway.pedestrian" priority="1" numLanes="1" speed="2.78" allow="pedestrian" oneway="1" width="2.00"/>
    <type id="highway.primary" priority="12" numLanes="2" speed="27.78" disallow="tram rail_urban rail rail_electric rail_fast ship" oneway="0"/>
    <type id="highway.primary_link" priority="7" numLanes="1" speed="22.22" disallow="tram rail_urban rail rail_electric rail_fast ship" oneway="0"/>
    <type id="highway.raceway" priority="15" numLanes="2" speed="83.33" allow="vip" oneway="0"/>
    <type id="highway.residential" priority="3" numLanes="1" speed="13.89" disallow="tram rail_urban rail rail_electric rail_fast ship" oneway="0"/>
    <type id="highway.secondary" priority="11" numLanes="1" speed="27.78" disallow="tram rail_urban rail rail_electric rail_fast ship" oneway="0"/>
    <type id="highway.secondary_link" priority="6" numLanes="1" speed="22.22" disallow="tram rail_urban rail rail_electric rail_fast ship" oneway="0"/>
    <type id="highway.service" priority="1" numLanes="1" speed="5.56" allow="pedestrian delivery bicycle" oneway="0"/>
    <type id="highway.stairs" priority="1" numLanes="1" speed="1.39" allow="pedestrian" oneway="1" width="2.00"/>
    <type id="highway.step" priority="1" numLanes="1" speed="1.39" allow="pedestrian" oneway="1" width="2.00"/>
    <type id="highway.steps" priority="1" numLanes="1" speed="1.39" allow="pedestrian" oneway="1" width="2.00"/>
    <type id="highway.tertiary" priority="10" numLanes="1" speed="22.22" disallow="tram rail_urban rail rail_electric rail_fast ship" oneway="0"/>
    <type id="highway.tertiary_link" priority="5" numLanes="1" speed="22.22" disallow="tram rail_urban rail rail_electric rail_fast ship" oneway="0"/>
    <type id="highway.track" priority="1" numLanes="1" speed="5.56" allow="pedestrian motorcycle moped bicycle" oneway="0"/>
    <type id="highway.trunk" priority="13" numLanes="2" speed="27.78" disallow="pedestrian bicycle tram rail_urban rail rail_electric rail_fast ship" oneway="0"/>
    <type id="highway.trunk_link" priority="8" numLanes="1" speed="22.22" disallow="pedestrian bicycle tram rail_urban rail rail_electric rail_fast ship" oneway="0"/>
    <type id="highway.unclassified" priority="4" numLanes="1" speed="13.89" disallow="tram rail_urban rail rail_electric rail_fast ship" oneway="0"/>
    <type id="highway.unsurfaced" priority="1" numLanes="1" speed="8.33" disallow="tram rail_urban rail rail_electric rail_fast ship" oneway="0"/>
    <type id="railway.highspeed" priority="21" numLanes="1" speed="69.44" allow="rail_fast" oneway="1"/>
    <type id="railway.light_rail" priority="19" numLanes="1" speed="27.78" allow="rail_urban" oneway="1"/>
    <type id="railway.preserved" priority="16" numLanes="1" speed="27.78" allow="rail" oneway="1"/>
    <type id="railway.rail" priority="20" numLanes="1" speed="44.44" allow="rail" oneway="1"/>
    <type id="railway.subway" priority="18" numLanes="1" speed="27.78" allow="rail_urban" oneway="1"/>
    <type id="railway.tram" priority="17" numLanes="1" speed="13.89" allow="tram" oneway="1"/>

    <edge id=":1090940386_0" function="internal">
        <lane id=":1090940386_0_0" index="0" disallow="tram rail_urban rail rail_electric rail_fast ship" speed="8.62" length="10.03" shape="3653.32,1469.31 3649.98,1468.76 3647.27,1468.73 3645.18,1469.23 3643.71,1470.24"/>
    </edge>
    <edge id=":1090940386_1" function="internal">
        <lane id=":1090940386_1_0" index="0" disallow="tram rail_urban rail rail_electric rail_fast ship" speed="17.98" length="10.84" shape="3652.95,1464.89 3650.02,1466.00 3647.85,1466.88 3645.92,1468.11 3643.71,1470.24"/>
    </edge>
    <edge id=":1090940386_2" function="internal">
        <lane id=":1090940386_2_0" index="0" disallow="tram rail_urban rail rail_electric rail_fast ship" speed="6.36" length="6.32" shape="3644.26,1464.37 3644.89,1465.98 3645.00,1467.50 3644.61,1468.92 3643.71,1470.24"/>
    </edge>
    <edge id=":1090940405_0" function="internal">
        <lane id=":1090940405_0_0" index="0" disallow="tram rail_urban rail rail_electric rail_fast ship" speed="22.22" length="8.21" shape="3609.80,1487.67 3602.28,1490.94"/>
    </edge>
    <edge id=":1090940405_1" function="internal">
        <lane id=":1090940405_1_0" index="0" disallow="tram rail_urban rail rail_electric rail_fast ship" speed="10.78" length="8.16" shape="3609.80,1487.67 3607.59,1488.36 3605.96,1488.27 3604.29,1487.70 3601.96,1486.95"/>
    </edge>
    <edge id=":1090940407_0" function="internal">
        <lane id=":1090940407_0_0" index="0" disallow="tram rail_urban rail rail_electric rail_fast ship" speed="8.63" length="5.61" shape="3590.05,1449.16 3591.66,1449.59 3592.83,1449.82 3593.96,1449.71 3595.46,1449.10"/>
    </edge>
    <edge id=":1090940407_1" function="internal">
        <lane id=":1090940407_1_0" index="0" disallow="tram rail_urban rail rail_electric rail_fast ship" speed="10.12" length="5.65" shape="3591.75,1453.17 3592.57,1451.71 3593.20,1450.70 3594.03,1449.92 3595.46,1449.10"/>
    </edge>
    <edge id=":1090940412_0" function="internal">
        <lane id=":1090940412_0_0" index="0" disallow="tram rail_urban rail rail_electric rail_fast ship" speed="10.67" length="10.87" shape="3630.95,1434.50 3630.84,1437.73 3631.20,1440.53 3632.01,1442.90 3633.27,1444.84"/>
    </edge>
    <edge id=":1090940412_1" function="internal">
        <lane id=":1090940412_1_0" index="0" disallow="tram rail_urban rail rail_electric rail_fast ship" speed="6.89" length="8.64" shape="3621.82,1439.40 3624.26,1438.84 3626.06,1437.79 3627.23,1436.24 3627.76,1434.20"/>
    </edge>
    <edge id=":1090940412_2" function="internal">
        <lane id=":1090940412_2_0" index="0" disallow="tram rail_urban rail rail_electric rail_fast ship" speed="10.34" length="13.20" shape="3621.82,1439.40 3624.84,1439.48 3627.76,1440.41 3630.57,1442.20 3633.27,1444.84"/>
    </edge>
    <edge id=":1228429946_0" function="internal">
        <lane id=":1228429946_0_0" index="0" allow="pedestrian bus delivery bicycle" speed="8.95" length="7.59" shape="3161.97,1643.57 3162.71,1644.66 3163.99,1645.72 3165.79,1646.74 3168.13,1647.73"/>
    </edge>
    <edge id=":1228429946_1" function="internal">
        <lane id=":1228429946_1_0" index="0" disallow="tram rail_urban rail rail_electric rail_fast ship" speed="22.22" length="7.97" shape="3161.97,1643.57 3165.22,1650.86"/>
    </edge>
    <edge id=":1228429954_0" function="internal">
        <lane id=":1228429954_0_0" index="0" disallow="tram rail_urban rail rail_electric rail_fast ship" speed="27.78" length="2.79" shape="2766.74,1343.33 2767.55,1340.66"/>
    </edge>
    <edge id=":1228429954_1" function="internal">
        <lane id=":1228429954_1_0" index="0" disallow="tram rail_urban rail rail_electric rail_fast ship" speed="25.00" length="2.55" shape="2769.84,1344.14 2770.03,1343.40 2770.17,1342.91 2770.34,1342.41 2770.61,1341.70"/>
    </edge>
    <edge id=":1228429983_0" function="internal">
        <lane id=":1228429983_0_0" index="0" disallow="tram rail_urban rail rail_electric rail_fast ship" speed="5.56" length="10.65" shape="2985.97,1248.30 2981.79,1238.50"/>
    </edge>
    <edge id=":1228429983_1" function="internal">
        <lane id=":1228429983_1_0" index="0" disallow="tram rail_urban rail rail_electric rail_fast ship" speed="6.54" length="8.73" shape="2978.82,1245.66 2980.84,1244.38 2982.01,1242.76 2982.33,1240.80 2981.79,1238.50"/>
    </edge>
    <edge id=":1324671145_0" function="internal">
        <lane id=":1324671145_0_0" index="0" allow="pedestrian delivery bicycle" speed="4.92" length="5.16" shape="3579.85,1794.91 3578.65,1795.71 3578.06,1796.68 3578.06,1797.82 3578.66,1799.13"/>
    </edge>
    <edge id=":1324671145_1" function="internal">
        <lane id=":1324671145_1_0" index="0" allow="pedestrian delivery bicycle" speed="9.72" length="9.38" shape="3579.85,1794.91 3577.27,1795.86 3575.36,1796.13 3573.44,1796.35 3570.80,1797.19"/>
    </edge>
    <edge id=":1324671145_2" function="internal">
        <lane id=":1324671145_2_0" index="0" allow="pedestrian delivery bicycle" speed="3.65" length="4.67" shape="3579.85,1794.91 3578.42,1794.71 3577.71,1794.16 3577.73,1793.27 3578.46,1792.03"/>
    </edge>
    <edge id=":1324671145_3" function="internal">
        <lane id=":1324671145_3_0" index="0" allow="pedestrian delivery bicycle" speed="5.38" length="6.00" shape="3573.71,1789.85 3574.61,1791.37 3575.71,1792.23 3576.99,1792.45 3578.46,1792.03"/>
    </edge>
    <edge id=":1324671145_4" function="internal">
        <lane id=":1324671145_4_0" index="0" allow="pedestrian delivery bicycle" speed="9.72" length="10.54" shape="3573.71,1789.85 3574.95,1792.64 3575.92,1794.63 3577.03,1796.55 3578.66,1799.13"/>
    </edge>
    <edge id=":1324671145_5" function="internal">
        <lane id=":1324671145_5_0" index="0" disallow="tram rail_urban rail rail_electric rail_fast ship" speed="6.47" length="9.03" shape="3573.71,1789.85 3574.38,1792.24 3574.12,1794.26 3572.93,1795.91 3570.80,1797.19"/>
    </edge>
    <edge id=":1459461416_0" function="internal">
        <lane id=":1459461416_0_0" index="0" allow="rail rail_electric rail_fast" speed="44.44" length="33.36" shape="2679.78,691.92 2686.00,694.18 2695.56,697.31 2705.15,700.35 2711.47,702.34"/>
    </edge>
    <edge id=":1459461416_1" function="internal">
        <lane id=":1459461416_1_0" index="0" allow="rail rail_electric rail_fast" speed="44.44" length="33.36" shape="2679.78,691.92 2710.27,705.47"/>
    </edge>
    <edge id=":1459461433_0" function="internal">
        <lane id=":1459461433_0_0" index="0" allow="rail rail_electric rail_fast" speed="2.84" length="1.62" shape="3218.73,933.84 3218.18,933.60 3217.98,933.54 3218.14,933.68 3218.65,934.01"/>
    </edge>
    <edge id=":1459461433_1" function="internal">
        <lane id=":1459461433_1_0" index="0" allow="rail rail_electric rail_fast" speed="44.44" length="28.70" shape="3194.46,918.57 3218.65,934.01"/>
    </edge>
    <edge id=":1459461433_2" function="internal">
        <lane id=":1459461433_2_0" index="0" allow="rail rail_electric rail_fast" speed="44.44" length="28.69" shape="3192.82,921.52 3198.17,924.01 3205.84,927.58 3213.46,931.25 3218.65,934.01"/>
    </edge>
    <edge id=":1459461442_0" function="internal">
        <lane id=":1459461442_0_0" index="0" allow="rail rail_electric rail_fast" speed="44.44" length="34.81" shape="3285.42,975.68 3291.33,979.15 3300.52,984.36 3309.76,989.46 3315.82,992.64"/>
    </edge>
    <edge id=":1459461442_1" function="internal">
        <lane id=":1459461442_1_0" index="0" allow="rail rail_electric rail_fast" speed="44.44" length="34.79" shape="3283.92,978.75 3315.82,992.64"/>
    </edge>
    <edge id=":1459461469_0" function="internal">
        <lane id=":1459461469_0_0" index="0" allow="rail rail_electric rail_fast" speed="39.58" length="49.57" shape="3526.95,1053.83 3478.71,1042.43"/>
    </edge>
    <edge id=":1459461469_1" function="internal">
        <lane id=":1459461469_1_0" index="0" allow="rail rail_electric rail_fast" speed="34.72" length="49.60" shape="3526.95,1053.83 3479.54,1039.28"/>
    </edge>
    <edge id=":1460386518_0" function="internal">
        <lane id=":1460386518_0_0" index="0" allow="rail rail_electric rail_fast" speed="44.44" length="3.02" shape="3228.09,928.41 3228.85,928.89 3229.37,929.20 3229.91,929.50 3230.71,929.90"/>
    </edge>
    <edge id=":1460386522_0" function="internal">
        <lane id=":1460386522_0_0" index="0" allow="rail rail_electric rail_fast" speed="44.44" length="22.42" shape="3390.58,998.91 3395.26,1000.36 3401.36,1001.94 3407.49,1003.41 3412.27,1004.56"/>
    </edge>
    <edge id=":1460386522_1" function="internal">
        <lane id=":1460386522_1_0" index="0" allow="rail rail_electric rail_fast" speed="44.44" length="30.04" shape="3390.58,998.91 3418.65,1009.63"/>
    </edge>
    <edge id=":1460386523_0" function="internal">
        <lane id=":1460386523_0_0" index="0" allow="rail" speed="44.44" length="34.58" shape="3406.05,999.54 3438.55,1011.37"/>
    </edge>
    <edge id=":1460386523_1" function="internal">
        <lane id=":1460386523_1_0" index="0" allow="rail rail_electric rail_fast" speed="44.44" length="26.95" shape="3412.46,1004.61 3417.93,1005.92 3425.57,1007.77 3433.18,1009.73 3438.55,1011.37"/>
    </edge>
    <edge id=":1460386524_0" function="internal">
        <lane id=":1460386524_0_0" index="0" allow="rail" speed="44.44" length="21.55" shape="3457.13,1018.37 3461.49,1020.29 3467.11,1022.38 3472.78,1024.36 3477.29,1025.94"/>
    </edge>
    <edge id=":1460386524_1" function="internal">
        <lane id=":1460386524_1_0" index="0" allow="rail" speed="44.44" length="29.09" shape="3457.13,1018.37 3483.02,1031.62"/>
    </edge>
    <edge id=":1460386524_2" function="internal">
        <lane id=":1460386524_2_0" index="0" allow="rail rail_electric rail_fast" speed="44.44" length="21.54" shape="3457.07,1018.52 3477.29,1025.94"/>
    </edge>
    <edge id=":1460386524_3" function="internal">
        <lane id=":1460386524_3_0" index="0" allow="rail" speed="44.44" length="29.07" shape="3457.07,1018.52 3462.46,1021.01 3470.12,1024.90 3477.73,1028.88 3483.02,1031.62"/>
    </edge>
    <edge id=":1460386525_0" function="internal">
        <lane id=":1460386525_0_0" index="0" allow="rail" speed="44.44" length="55.74" shape="3471.77,1020.32 3480.97,1024.52 3497.24,1031.64 3513.56,1038.64 3522.91,1042.49"/>
    </edge>
    <edge id=":1460386525_1" function="internal">
        <lane id=":1460386525_1_0" index="0" allow="rail" speed="44.44" length="55.86" shape="3471.77,1020.32 3521.60,1045.55"/>
    </edge>
    <edge id=":1460386525_2" function="internal">
        <lane id=":1460386525_2_0" index="0" allow="rail" speed="44.44" length="48.33" shape="3477.48,1026.01 3522.91,1042.49"/>
    </edge>
    <edge id=":1460386525_3" function="internal">
        <lane id=":1460386525_3_0" index="0" allow="rail rail_electric rail_fast" speed="44.44" length="48.26" shape="3477.48,1026.01 3521.60,1045.55"/>
    </edge>
    <edge id=":1496364493_0" function="internal">
        <lane id=":1496364493_0_0" index="0" disallow="tram rail_urban rail rail_electric rail_fast ship" speed="27.78" length="9.32" shape="3485.05,1130.17 3494.27,1131.17"/>
        <lane id=":1496364493_0_1" index="1" disallow="tram rail_urban rail rail_electric rail_fast ship" speed="27.78" length="9.32" shape="3484.66,1133.34 3493.97,1134.36"/>
    </edge>
    <edge id=":1496364493_2" function="internal">
        <lane id=":1496364493_2_0" index="0" disallow="tram rail_urban rail rail_electric rail_fast ship" speed="6.14" length="7.75" shape="3484.66,1133.34 3487.36,1133.87 3489.25,1134.68 3490.32,1135.77 3490.59,1137.16"/>
    </edge>
    <edge id=":1496364493_3" function="internal">
        <lane id=":1496364493_3_0" index="0" disallow="tram rail_urban rail rail_electric rail_fast ship" speed="6.08" length="7.77" shape="3487.40,1136.87 3487.92,1135.54 3489.19,1134.68 3491.20,1134.29 3493.97,1134.36"/>
    </edge>
    <edge id=":1496364493_4" function="internal">
        <lane id=":1496364493_4_0" index="0" disallow="tram rail_urban rail rail_electric rail_fast ship" speed="3.65" length="4.67" shape="3487.40,1136.87 3488.31,1135.75 3489.14,1135.42 3489.90,1135.89 3490.59,1137.16"/>
    </edge>
    <edge id=":1496371159_0" function="internal">
        <lane id=":1496371159_0_0" index="0" allow="pedestrian delivery bicycle" speed="5.07" length="5.29" shape="3452.13,939.05 3450.71,938.51 3449.50,938.53 3448.50,939.13 3447.72,940.28"/>
    </edge>
    <edge id=":1496371159_1" function="internal">
        <lane id=":1496371159_1_0" index="0" disallow="tram rail_urban rail rail_electric rail_fast ship" speed="8.13" length="11.03" shape="3452.13,939.05 3449.77,937.35 3448.23,935.25 3447.52,932.74 3447.64,929.83"/>
    </edge>
    <edge id=":1496371159_2" function="internal">
        <lane id=":1496371159_2_0" index="0" disallow="tram rail_urban rail rail_electric rail_fast ship" speed="6.61" length="7.02" shape="3450.79,930.37 3450.72,932.22 3451.17,933.81 3452.15,935.15 3453.65,936.23"/>
    </edge>
    <edge id=":1496371159_3" function="internal">
        <lane id=":1496371159_3_0" index="0" allow="pedestrian delivery bicycle" speed="9.72" length="10.44" shape="3450.79,930.37 3450.26,933.36 3449.74,935.48 3448.98,937.52 3447.72,940.28"/>
    </edge>
    <edge id=":1496371159_4" function="internal">
        <lane id=":1496371159_4_0" index="0" allow="pedestrian delivery bicycle" speed="9.72" length="9.57" shape="3444.82,938.92 3446.00,936.34 3446.69,934.52 3447.15,932.63 3447.64,929.83"/>
    </edge>
    <edge id=":1496371159_5" function="internal">
        <lane id=":1496371159_5_0" index="0" allow="pedestrian delivery bicycle" speed="6.88" length="10.66" shape="3444.82,938.92 3446.42,936.52 3448.43,935.28 3450.84,935.18 3453.65,936.23"/>
    </edge>
    <edge id=":1496371159_6" function="internal">
        <lane id=":1496371159_6_0" index="0" allow="pedestrian delivery bicycle" speed="3.65" length="4.67" shape="3444.82,938.92 3446.06,938.18 3446.95,938.16 3447.50,938.86 3447.72,940.28"/>
    </edge>
    <edge id=":1496373943_0" function="internal">
        <lane id=":1496373943_0_0" index="0" allow="pedestrian delivery bicycle" speed="5.96" length="7.28" shape="3435.14,1711.28 3433.98,1709.09 3432.72,1707.70 3431.37,1707.11 3429.93,1707.32"/>
    </edge>
    <edge id=":1496373943_1" function="internal">
        <lane id=":1496373943_1_0" index="0" disallow="tram rail_urban rail rail_electric rail_fast ship" speed="22.22" length="14.40" shape="3435.14,1711.28 3429.41,1698.07"/>
    </edge>
    <edge id=":1496373943_2" function="internal">
        <lane id=":1496373943_2_0" index="0" disallow="tram rail_urban rail rail_electric rail_fast ship" speed="8.00" length="4.06" shape="3435.14,1711.28 3434.12,1707.53 3434.14,1707.35"/>
    </edge>
    <edge id=":1496373943_3" function="internal">
        <lane id=":1496373943_3_0" index="0" disallow="tram rail_urban rail rail_electric rail_fast ship" speed="3.65" length="1.44" shape="3435.14,1711.28 3435.40,1709.86"/>
    </edge>
    <edge id=":1496373943_16" function="internal">
        <lane id=":1496373943_16_0" index="0" disallow="tram rail_urban rail rail_electric rail_fast ship" speed="8.00" length="10.13" shape="3434.14,1707.35 3434.54,1704.35 3436.40,1701.74 3439.71,1699.70"/>
    </edge>
    <edge id=":1496373943_17" function="internal">
        <lane id=":1496373943_17_0" index="0" disallow="tram rail_urban rail rail_electric rail_fast ship" speed="3.65" length="3.23" shape="3435.40,1709.86 3435.97,1709.17 3436.87,1709.22 3438.08,1710.00"/>
    </edge>
    <edge id=":1496373943_4" function="internal">
        <lane id=":1496373943_4_0" index="0" disallow="tram rail_urban rail rail_electric rail_fast ship" speed="6.51" length="9.04" shape="3440.99,1702.63 3438.88,1703.93 3437.69,1705.59 3437.43,1707.62 3438.08,1710.00"/>
    </edge>
    <edge id=":1496373943_5" function="internal">
        <lane id=":1496373943_5_0" index="0" allow="pedestrian delivery bicycle" speed="9.72" length="12.01" shape="3440.99,1702.63 3429.93,1707.32"/>
    </edge>
    <edge id=":1496373943_6" function="internal">
        <lane id=":1496373943_6_0" index="0" disallow="tram rail_urban rail rail_electric rail_fast ship" speed="8.00" length="14.19" shape="3440.99,1702.63 3437.24,1703.66 3434.06,1703.25 3431.45,1701.38 3429.41,1698.07"/>
    </edge>
    <edge id=":1496373943_7" function="internal">
        <lane id=":1496373943_7_0" index="0" disallow="tram rail_urban rail rail_electric rail_fast ship" speed="3.65" length="4.67" shape="3440.99,1702.63 3439.57,1702.38 3438.88,1701.80 3438.93,1700.91 3439.71,1699.70"/>
    </edge>
    <edge id=":1496373943_8" function="internal">
        <lane id=":1496373943_8_0" index="0" disallow="tram rail_urban rail rail_electric rail_fast ship" speed="6.51" length="9.03" shape="3432.35,1696.80 3433.64,1698.90 3435.30,1700.09 3437.33,1700.35 3439.71,1699.70"/>
    </edge>
    <edge id=":1496373943_9" function="internal">
        <lane id=":1496373943_9_0" index="0" disallow="tram rail_urban rail rail_electric rail_fast ship" speed="22.22" length="14.40" shape="3432.35,1696.80 3438.08,1710.00"/>
    </edge>
    <edge id=":1496373943_10" function="internal">
        <lane id=":1496373943_10_0" index="0" allow="pedestrian delivery bicycle" speed="7.23" length="4.53" shape="3432.35,1696.80 3432.99,1699.66 3432.89,1701.25"/>
    </edge>
    <edge id=":1496373943_11" function="internal">
        <lane id=":1496373943_11_0" index="0" disallow="tram rail_urban rail rail_electric rail_fast ship" speed="3.65" length="1.44" shape="3432.35,1696.80 3432.09,1698.22"/>
    </edge>
    <edge id=":1496373943_18" function="internal">
        <lane id=":1496373943_18_0" index="0" allow="pedestrian delivery bicycle" speed="7.23" length="7.06" shape="3432.89,1701.25 3432.79,1702.84 3431.76,1705.63 3429.93,1707.32"/>
    </edge>
    <edge id=":1496373943_19" function="internal">
        <lane id=":1496373943_19_0" index="0" disallow="tram rail_urban rail rail_electric rail_fast ship" speed="3.65" length="3.23" shape="3432.09,1698.22 3431.52,1698.90 3430.62,1698.85 3429.41,1698.07"/>
    </edge>
    <edge id=":1496373943_12" function="internal">
        <lane id=":1496373943_12_0" index="0" allow="pedestrian delivery bicycle" speed="5.80" length="7.08" shape="3428.72,1704.36 3429.86,1703.52 3430.35,1702.19 3430.20,1700.38 3429.41,1698.07"/>
    </edge>
    <edge id=":1496373943_13" function="internal">
        <lane id=":1496373943_13_0" index="0" allow="pedestrian delivery bicycle" speed="9.72" length="11.94" shape="3428.72,1704.36 3439.71,1699.70"/>
    </edge>
    <edge id=":1496373943_14" function="internal">
        <lane id=":1496373943_14_0" index="0" allow="pedestrian delivery bicycle" speed="7.37" length="11.68" shape="3428.72,1704.36 3431.22,1704.26 3433.96,1705.48 3436.42,1707.54 3438.08,1710.00"/>
    </edge>
    <edge id=":1496373943_15" function="internal">
        <lane id=":1496373943_15_0" index="0" allow="pedestrian delivery bicycle" speed="3.65" length="4.67" shape="3428.72,1704.36 3430.14,1704.65 3430.81,1705.24 3430.74,1706.13 3429.93,1707.32"/>
    </edge>
    <edge id=":1496373944_0" function="internal">
        <lane id=":1496373944_0_0" index="0" disallow="tram rail_urban rail rail_electric rail_fast ship" speed="13.89" length="4.57" shape="3662.70,1526.47 3664.06,1526.44 3664.99,1526.47 3665.91,1526.61 3667.23,1526.92"/>
    </edge>
    <edge id=":1496373947_0" function="internal">
        <lane id=":1496373947_0_0" index="0" disallow="tram rail_urban rail rail_electric rail_fast ship" speed="6.93" length="10.32" shape="3524.46,1664.64 3522.41,1666.05 3521.37,1667.99 3521.32,1670.47 3522.26,1673.48"/>
    </edge>
    <edge id=":1496373947_1" function="internal">
        <lane id=":1496373947_1_0" index="0" disallow="tram rail_urban rail rail_electric rail_fast ship" speed="13.89" length="11.34" shape="3524.46,1664.64 3521.68,1666.16 3519.67,1667.66 3517.66,1669.14 3514.86,1670.62"/>
    </edge>
    <edge id=":1496373947_2" function="internal">
        <lane id=":1496373947_2_0" index="0" disallow="tram rail_urban rail rail_electric rail_fast ship" speed="13.89" length="14.34" shape="3516.45,1660.36 3522.26,1673.48"/>
    </edge>
    <edge id=":1496373947_3" function="internal">
        <lane id=":1496373947_3_0" index="0" disallow="tram rail_urban rail rail_electric rail_fast ship" speed="7.29" length="11.70" shape="3516.45,1660.36 3517.69,1664.02 3517.84,1666.94 3516.90,1669.15 3514.86,1670.62"/>
    </edge>
    <edge id=":1496373947_4" function="internal">
        <lane id=":1496373947_4_0" index="0" disallow="tram rail_urban rail rail_electric rail_fast ship" speed="7.34" length="2.35" shape="3513.59,1667.68 3515.90,1667.25"/>
    </edge>
    <edge id=":1496373947_5" function="internal">
        <lane id=":1496373947_5_0" index="0" disallow="tram rail_urban rail rail_electric rail_fast ship" speed="3.65" length="1.44" shape="3513.59,1667.68 3515.01,1667.94"/>
    </edge>
    <edge id=":1496373947_6" function="internal">
        <lane id=":1496373947_6_0" index="0" disallow="tram rail_urban rail rail_electric rail_fast ship" speed="7.34" length="9.36" shape="3515.90,1667.25 3516.06,1667.21 3518.33,1668.02 3520.39,1670.11 3522.26,1673.48"/>
    </edge>
    <edge id=":1496373947_7" function="internal">
        <lane id=":1496373947_7_0" index="0" disallow="tram rail_urban rail rail_electric rail_fast ship" speed="3.65" length="3.23" shape="3515.01,1667.94 3515.70,1668.52 3515.65,1669.41 3514.86,1670.62"/>
    </edge>
    <edge id=":1496373948_0" function="internal">
        <lane id=":1496373948_0_0" index="0" disallow="tram rail_urban rail rail_electric rail_fast ship" speed="15.87" length="4.46" shape="3642.44,1471.63 3641.53,1472.58 3640.82,1473.14 3640.02,1473.59 3638.84,1474.19"/>
    </edge>
    <edge id=":1496373949_0" function="internal">
        <lane id=":1496373949_0_0" index="0" disallow="tram rail_urban rail rail_electric rail_fast ship" speed="4.09" length="4.62" shape="3751.11,1559.60 3752.38,1560.33 3752.81,1561.06 3752.39,1561.79 3751.13,1562.54"/>
    </edge>
    <edge id=":1496373952_0" function="internal">
        <lane id=":1496373952_0_0" index="0" disallow="tram rail_urban rail rail_electric rail_fast ship" speed="6.55" length="8.85" shape="3481.54,1581.86 3482.84,1583.86 3484.49,1585.00 3486.49,1585.27 3488.85,1584.67"/>
    </edge>
    <edge id=":1496373952_1" function="internal">
        <lane id=":1496373952_1_0" index="0" disallow="tram rail_urban rail rail_electric rail_fast ship" speed="13.89" length="10.84" shape="3481.54,1581.86 3486.00,1591.75"/>
    </edge>
    <edge id=":1496374619_0" function="internal">
        <lane id=":1496374619_0_0" index="0" disallow="tram rail_urban rail rail_electric rail_fast ship" speed="22.22" length="10.60" shape="3489.57,1837.23 3485.60,1827.40"/>
    </edge>
    <edge id=":1496374619_1" function="internal">
        <lane id=":1496374619_1_0" index="0" disallow="tram rail_urban rail rail_electric rail_fast ship" speed="3.65" length="1.44" shape="3489.57,1837.23 3489.90,1835.82"/>
    </edge>
    <edge id=":1496374619_6" function="internal">
        <lane id=":1496374619_6_0" index="0" disallow="tram rail_urban rail rail_electric rail_fast ship" speed="3.65" length="3.23" shape="3489.90,1835.82 3490.51,1835.17 3491.40,1835.27 3492.57,1836.11"/>
    </edge>
    <edge id=":1496374619_2" function="internal">
        <lane id=":1496374619_2_0" index="0" disallow="tram rail_urban rail rail_electric rail_fast ship" speed="6.53" length="8.79" shape="3495.68,1828.98 3493.62,1830.22 3492.41,1831.82 3492.06,1833.78 3492.57,1836.11"/>
    </edge>
    <edge id=":1496374619_3" function="internal">