<?xml version="1.0" encoding="UTF-8"?>

<!-- generated on 2022-10-03 15:23:14 by Eclipse SUMO polyconvert Version 1.14.1
<configuration xmlns:xsi="http://www.w3.org/2001/XMLSchema-instance" xsi:noNamespaceSchemaLocation="http://sumo.dlr.de/xsd/polyconvertConfiguration.xsd">

    <input>
        <net-file value="osm.net.xml"/>
        <osm-files value="osm_bbox.osm.xml.gz"/>
        <osm.keep-full-type value="true"/>
        <type-file value="C:\Program%20Files%20(x86)\Eclipse\Sumo\data\typemap\osmPolyconvert.typ.xml"/>
    </input>

    <output>
        <output-file value="osm.poly.xml"/>
    </output>

    <report>
        <verbose value="true"/>
    </report>

</configuration>
-->

<additional xmlns:xsi="http://www.w3.org/2001/XMLSchema-instance" xsi:noNamespaceSchemaLocation="http://sumo.dlr.de/xsd/additional_file.xsd">
    <location netOffset="-429079.44,-4518498.41" convBoundary="-0.00,-21.03,7703.46,2400.11" origBoundary="14.159043,40.814275,14.250191,40.836255" projParameter="+proj=utm +zone=33 +ellps=WGS84 +datum=WGS84 +units=m +no_defs"/>

    <poly id="1026853263" type="landuse.railway" color="194,194,130" fill="1" layer="-3.00" shape="3285.153698,954.065964 3301.979665,917.343003 3305.183797,918.201823 3312.275505,898.753383 3124.464078,827.247077 3016.006988,788.520893 2947.617946,762.738605 2880.343462,734.404390 2848.937339,722.592724 2820.625732,714.382934 2790.575451,707.865636 2774.934927,703.724570 2741.954454,695.902281 2698.203577,683.461320 2741.853927,702.375505 2823.698771,725.711666 2846.447749,732.485072 2887.041381,748.319780 2942.187708,772.935508 3007.373305,801.622522 3072.696345,829.720448 3136.326524,868.236763 3191.120910,903.415261 3230.895121,927.574507 3285.153698,954.065964"/>
    <poly id="1027700357" type="landuse.construction" color="194,194,130" fill="1" layer="-3.00" shape="3466.707634,998.389824 3470.673290,991.215241 3486.319576,999.798383 3482.353910,1006.972959 3466.707634,998.389824"/>
    <poly id="1027700364" type="natural.scrub" color="140,196,107" fill="1" layer="-4.00" shape="3576.243836,1039.543954 3585.309468,1042.303378 3630.121506,1054.073755 3655.819537,1061.688697 3665.384561,1082.261882 3660.931161,1080.337414 3657.981433,1079.620449 3657.372913,1076.695142 3650.552982,1073.271290 3642.590158,1070.290814 3643.956658,1065.693377 3582.723613,1047.278294 3575.277823,1042.738942 3576.243836,1039.543954"/>
    <poly id="123774495" type="amenity.place_of_worship" color="237,199,199" fill="1" layer="-1.00" shape="3640.698039,1220.935764 3641.211074,1217.078807 3642.453579,1197.939281 3636.293270,1197.484692 3637.939643,1181.949538 3629.903581,1181.101270 3630.246256,1172.427729 3643.085136,1173.754050 3643.536117,1169.564607 3661.807309,1171.041337 3661.067548,1175.932813 3667.762093,1175.783071 3674.500774,1176.776406 3673.567165,1183.534729 3664.838337,1182.548405 3664.466517,1186.170940 3662.354232,1200.555752 3659.793697,1219.429727 3655.479191,1218.858406 3654.950295,1222.826524 3640.698039,1220.935764"/>
    <poly id="123774495#1" type="building.church" color="255,230,230" fill="1" layer="-1.00" shape="3640.698039,1220.935764 3641.211074,1217.078807 3642.453579,1197.939281 3636.293270,1197.484692 3637.939643,1181.949538 3629.903581,1181.101270 3630.246256,1172.427729 3643.085136,1173.754050 3643.536117,1169.564607 3661.807309,1171.041337 3661.067548,1175.932813 3667.762093,1175.783071 3674.500774,1176.776406 3673.567165,1183.534729 3664.838337,1182.548405 3664.466517,1186.170940 3662.354232,1200.555752 3659.793697,1219.429727 3655.479191,1218.858406 3654.950295,1222.826524 3640.698039,1220.935764"/>
    <poly id="124085533" type="historic.archaeological_site" color="128,255,128" fill="1" layer="-1.00" shape="2552.154429,1761.522878 2500.300508,1721.192908 2529.148400,1684.767469 2580.221409,1727.269703 2552.154429,1761.522878"/>
    <poly id="132685765" type="building.train_station" color="255,230,230" fill="1" layer="-1.00" shape="3486.628015,1115.852667 3487.493142,1107.152146 3495.773644,1107.975828 3503.615249,1108.759116 3502.741671,1117.459712 3499.019493,1117.116213 3490.612109,1116.249278 3486.628015,1115.852667"/>
    <poly id="136413999" type="amenity.marketplace" color="237,199,199" fill="1" layer="-1.00" shape="3637.493198,1809.887724 3640.455968,1805.586589 3647.204022,1800.262935 3652.516776,1807.708210 3656.985612,1817.858885 3663.332985,1827.803733 3684.592452,1863.168978 3705.353394,1897.517461 3729.176007,1939.387311 3739.994905,1958.894527 3731.997251,1964.029633 3725.953551,1969.835281 3723.976536,1967.555210 3722.239491,1964.773381 3720.636239,1960.014232 3713.864141,1947.852861 3705.899837,1935.335985 3692.458382,1913.976494 3691.825252,1912.972000 3680.942107,1896.618320 3668.912989,1891.476704 3646.483088,1888.705656 3647.343425,1884.101717 3647.874036,1881.254849 3644.451501,1881.363726 3645.099025,1876.539691 3640.527401,1875.471151 3641.859365,1867.099440 3639.896450,1866.373501 3641.770628,1859.206938 3652.487971,1859.187062 3657.247482,1854.958387 3663.071769,1851.907904 3658.106618,1843.737847 3649.852040,1829.924773 3637.493198,1809.887724"/>
    <poly id="136413999#1" type="building.yes" color="255,230,230" fill="1" layer="-1.00" shape="3637.493198,1809.887724 3640.455968,1805.586589 3647.204022,1800.262935 3652.516776,1807.708210 3656.985612,1817.858885 3663.332985,1827.803733 3684.592452,1863.168978 3705.353394,1897.517461 3729.176007,1939.387311 3739.994905,1958.894527 3731.997251,1964.029633 3725.953551,1969.835281 3723.976536,1967.555210 3722.239491,1964.773381 3720.636239,1960.014232 3713.864141,1947.852861 3705.899837,1935.335985 3692.458382,1913.976494 3691.825252,1912.972000 3680.942107,1896.618320 3668.912989,1891.476704 3646.483088,1888.705656 3647.343425,1884.101717 3647.874036,1881.254849 3644.451501,1881.363726 3645.099025,1876.539691 3640.527401,1875.471151 3641.859365,1867.099440 3639.896450,1866.373501 3641.770628,1859.206938 3652.487971,1859.187062 3657.247482,1854.958387 3663.071769,1851.907904 3658.106618,1843.737847 3649.852040,1829.924773 3637.493198,1809.887724"/>
    <poly id="207796329" type="building.apartments" color="255,230,230" fill="1" layer="-1.00" shape="3244.637770,1707.976240 3254.892679,1703.474936 3238.683712,1666.477072 3235.256741,1658.748368 3224.798601,1663.162747 3244.637770,1707.976240"/>
    <poly id="207796330" type="building.apartments" color="255,230,230" fill="1" layer="-1.00" shape="3274.475237,1695.424507 3284.755375,1690.911913 3264.907774,1646.076191 3254.627584,1650.588812 3274.475237,1695.424507"/>
    <poly id="207796332" type="building.yes" color="255,230,230" fill="1" layer="-1.00" shape="3219.077942,1647.150985 3263.404560,1627.416878 3250.853493,1599.433389 3233.275574,1607.254578 3238.991631,1620.002488 3226.301626,1625.647394 3212.242832,1631.915459 3219.077942,1647.150985"/>
    <poly id="207796334" type="building.apartments" color="255,230,230" fill="1" layer="-1.00" shape="3185.496693,1734.251963 3195.894261,1729.682657 3176.079228,1684.769151 3165.596983,1689.305954 3185.496693,1734.251963"/>
    <poly id="207796335" type="building.apartments" color="255,230,230" fill="1" layer="-1.00" shape="3235.974415,1772.068076 3247.981315,1768.283423 3226.287297,1721.644030 3215.654525,1726.315363 3235.974415,1772.068076"/>
    <poly id="207796336" type="building.apartments" color="255,230,230" fill="1" layer="-1.00" shape="3268.330277,1761.069684 3279.080567,1756.341841 3259.026461,1711.041752 3248.276116,1715.769622 3268.330277,1761.069684"/>
    <poly id="207796338" type="building.apartments" color="255,230,230" fill="1" layer="-1.00" shape="3250.921938,1803.937396 3264.732664,1798.237856 3260.300755,1787.576389 3255.134245,1789.699725 3250.917992,1779.569172 3237.762476,1784.996294 3241.409641,1793.755441 3245.920808,1791.893438 3250.921938,1803.937396"/>
    <poly id="207796339" type="building.office" color="255,230,230" fill="1" layer="-1.00" shape="3170.204593,1641.859385 3200.985722,1654.965865 3213.536983,1648.911423 3207.195379,1633.238412 3200.954778,1635.948915 3181.049517,1627.205604 3185.070906,1625.259242 3183.469477,1620.744425 3178.939219,1622.373503 3164.037331,1626.817608 3170.204593,1641.859385"/>
    <poly id="207796341" type="building.apartments" color="255,230,230" fill="1" layer="-1.00" shape="3297.620920,1747.757028 3308.018941,1743.232284 3290.087580,1702.275661 3279.689511,1706.800430 3297.620920,1747.757028"/>
    <poly id="207796343" type="building.apartments" color="255,230,230" fill="1" layer="-1.00" shape="3206.800989,1784.347447 3207.531092,1783.963298 3217.785771,1779.450839 3197.241397,1734.976928 3186.953042,1739.500824 3206.800989,1784.347447"/>
    <poly id="207796345" type="building.apartments" color="255,230,230" fill="1" layer="-1.00" shape="3215.571880,1721.897638 3225.961051,1717.328453 3208.988509,1678.916627 3206.137638,1672.403845 3195.672324,1676.951552 3215.571880,1721.897638"/>
    <poly id="214810372" type="building.yes" color="255,230,230" fill="1" layer="-1.00" shape="3617.500217,1105.367477 3620.903172,1105.847164 3620.645766,1107.215016 3619.295451,1107.105195 3616.507951,1134.385230 3652.415709,1138.010483 3663.306138,1101.297989 3624.220301,1096.902299 3618.499510,1096.565838 3617.500217,1105.367477"/>
    <poly id="216959763" type="building.yes" color="255,230,230" fill="1" layer="-1.00" shape="2807.391254,1778.193806 2825.378540,1771.877646 2828.235708,1779.955574 2839.868539,1775.862852 2837.262553,1768.504218 2845.306392,1765.676870 2841.245921,1754.212896 2803.582006,1767.460249 2807.391254,1778.193806"/>
    <poly id="216959764" type="building.yes" color="255,230,230" fill="1" layer="-1.00" shape="2764.898183,1848.382247 2827.093649,1823.473768 2812.088546,1785.555355 2772.840797,1801.681717 2770.565091,1795.396926 2791.072245,1787.103533 2787.064478,1774.961895 2754.391845,1788.107968 2764.898183,1848.382247"/>
    <poly id="216959765" type="building.yes" color="255,230,230" fill="1" layer="-1.00" shape="2835.050329,1818.515680 2852.263956,1810.608064 2840.382333,1784.950432 2823.168760,1792.869175 2835.050329,1818.515680"/>
    <poly id="216959766" type="building.yes" color="255,230,230" fill="1" layer="-1.00" shape="2870.334636,1773.983533 2856.103567,1776.135136 2854.508956,1769.633113 2860.765719,1765.956312 2853.373411,1749.804791 2879.108801,1739.665004 2886.734955,1756.491602 2895.923964,1752.565796 2892.683087,1744.935446 2899.697067,1740.152636 2904.867549,1741.215208 2920.190769,1779.841381 2866.097423,1804.663324 2861.729473,1792.769204 2901.624400,1777.303465 2899.226921,1767.855766 2890.915189,1769.064669 2890.167160,1766.584771 2882.343967,1771.397246 2876.183343,1765.370235 2869.642134,1767.462096 2870.334636,1773.983533"/>
    <poly id="219011720" type="building.yes" color="255,230,230" fill="1" layer="-1.00" shape="3277.150301,1620.108217 3353.519262,1587.236707 3337.823889,1551.044365 3261.454514,1583.904931 3277.150301,1620.108217"/>
    <poly id="225050369" type="amenity.theatre" color="237,199,199" fill="1" layer="-1.00" shape="2384.775774,963.038270 2375.159613,999.185865 2423.692489,1012.701842 2419.314597,1028.973145 2454.705285,1039.458262 2474.431357,971.221962 2443.721348,961.692529 2440.677245,960.821496 2435.585696,978.353895 2384.775774,963.038270"/>
    <poly id="225050369#1" type="building.yes" color="255,230,230" fill="1" layer="-1.00" shape="2384.775774,963.038270 2375.159613,999.185865 2423.692489,1012.701842 2419.314597,1028.973145 2454.705285,1039.458262 2474.431357,971.221962 2443.721348,961.692529 2440.677245,960.821496 2435.585696,978.353895 2384.775774,963.038270"/>
    <poly id="225137431" type="amenity.school" color="237,199,199" fill="1" layer="-2.00" shape="3358.820570,1569.403298 3336.125488,1511.948589 3334.316555,1512.398102 3330.362378,1500.499938 3335.318718,1498.422989 3334.629734,1496.852849 3375.860009,1479.590145 3383.046376,1498.219725 3408.372528,1486.498017 3424.260222,1479.147865 3454.275946,1546.016836 3415.931658,1562.553334 3410.153612,1548.529164 3361.753692,1568.321816 3358.820570,1569.403298"/>
    <poly id="225138442" type="amenity.school" color="237,199,199" fill="1" layer="-2.00" shape="3410.153612,1548.529164 3415.931658,1562.553334 3454.275946,1546.016836 3424.260222,1479.147865 3408.372528,1486.498017 3412.206942,1496.376804 3416.257018,1493.864122 3429.197793,1523.942541 3426.037587,1525.092679 3429.513875,1533.620339 3432.891283,1532.246184 3435.684567,1540.780084 3432.309291,1542.387354 3430.689091,1538.572065 3424.379253,1541.105382 3425.782135,1546.055028 3421.498235,1547.892638 3419.880058,1544.299367 3410.153612,1548.529164"/>
    <poly id="225138442#1" type="building.school" color="255,230,230" fill="1" layer="-1.00" shape="3410.153612,1548.529164 3415.931658,1562.553334 3454.275946,1546.016836 3424.260222,1479.147865 3408.372528,1486.498017 3412.206942,1496.376804 3416.257018,1493.864122 3429.197793,1523.942541 3426.037587,1525.092679 3429.513875,1533.620339 3432.891283,1532.246184 3435.684567,1540.780084 3432.309291,1542.387354 3430.689091,1538.572065 3424.379253,1541.105382 3425.782135,1546.055028 3421.498235,1547.892638 3419.880058,1544.299367 3410.153612,1548.529164"/>
    <poly id="225138729" type="building.yes" color="255,230,230" fill="1" layer="-1.00" shape="3345.013439,1519.305442 3378.586552,1504.799394 3377.196011,1501.204051 3383.046376,1498.219725 3375.860009,1479.590145 3334.629734,1496.852849 3345.013439,1519.305442"/>
    <poly id="225138729#1" type="leisure.sports_centre" color="207,245,201" fill="1" layer="-2.00" shape="3345.013439,1519.305442 3378.586552,1504.799394 3377.196011,1501.204051 3383.046376,1498.219725 3375.860009,1479.590145 3334.629734,1496.852849 3345.013439,1519.305442"/>
    <poly id="225138729#2" type="sport.basketball" color="79,230,125" fill="1" layer="-2.00" shape="3345.013439,1519.305442 3378.586552,1504.799394 3377.196011,1501.204051 3383.046376,1498.219725 3375.860009,1479.590145 3334.629734,1496.852849 3345.013439,1519.305442"/>
    <poly id="225138806" type="leisure.pitch" color="207,245,201" fill="1" layer="-2.00" shape="3365.289080,1516.899697 3378.551956,1548.063054 3397.738247,1539.961079 3384.475439,1508.797689 3365.289080,1516.899697"/>
    <poly id="225138806#1" type="sport.soccer" color="79,230,125" fill="1" layer="-2.00" shape="3365.289080,1516.899697 3378.551956,1548.063054 3397.738247,1539.961079 3384.475439,1508.797689 3365.289080,1516.899697"/>
    <poly id="225138807" type="leisure.pitch" color="207,245,201" fill="1" layer="-2.00" shape="3365.349830,1517.087871 3378.528689,1548.285301 3397.451862,1539.997001 3384.724342,1508.351346 3365.349830,1517.087871"/>
    <poly id="225138807#1" type="sport.soccer" color="79,230,125" fill="1" layer="-2.00" shape="3365.349830,1517.087871 3378.528689,1548.285301 3397.451862,1539.997001 3384.724342,1508.351346 3365.349830,1517.087871"/>
    <poly id="225138830" type="amenity.place_of_worship" color="237,199,199" fill="1" layer="-1.00" shape="3416.182065,1460.737327 3424.260222,1479.147865 3383.046376,1498.219725 3375.860009,1479.590145 3416.182065,1460.737327"/>
    <poly id="225138830#1" type="building.church" color="255,230,230" fill="1" layer="-1.00" shape="3416.182065,1460.737327 3424.260222,1479.147865 3383.046376,1498.219725 3375.860009,1479.590145 3416.182065,1460.737327"/>
    <poly id="225139634" type="amenity.school" color="237,199,199" fill="1" layer="-2.00" shape="3567.363630,1371.709825 3549.705377,1394.862415 3562.887485,1401.503172 3559.962971,1403.539239 3566.669115,1419.486755 3561.035727,1422.235819 3557.180342,1421.138593 3558.287918,1417.753580 3545.134580,1414.265450 3545.571363,1413.151298 3532.436566,1410.773192 3528.290455,1427.729992 3555.948053,1434.893728 3557.705506,1428.793976 3561.540446,1427.648846 3563.152304,1430.553899 3564.087532,1434.164527 3585.718056,1424.941704 3585.469853,1422.690321 3595.961407,1432.064469 3613.094749,1426.268720 3614.790673,1413.408611 3603.403044,1404.719803 3608.080583,1397.017022 3611.929906,1397.448228 3619.747126,1386.330839 3603.802647,1374.530654 3597.099106,1382.929100 3598.471153,1384.504142 3596.227368,1387.211195 3593.955301,1385.888591 3584.581734,1399.262734 3586.862195,1401.506699 3579.485910,1411.032564 3569.345214,1415.177107 3564.927736,1402.372710 3571.171973,1392.624013 3574.338429,1392.151085 3581.485034,1382.405275 3578.981045,1380.618518 3567.363630,1371.709825"/>
    <poly id="225139634#1" type="building.school" color="255,230,230" fill="1" layer="-1.00" shape="3567.363630,1371.709825 3549.705377,1394.862415 3562.887485,1401.503172 3559.962971,1403.539239 3566.669115,1419.486755 3561.035727,1422.235819 3557.180342,1421.138593 3558.287918,1417.753580 3545.134580,1414.265450 3545.571363,1413.151298 3532.436566,1410.773192 3528.290455,1427.729992 3555.948053,1434.893728 3557.705506,1428.793976 3561.540446,1427.648846 3563.152304,1430.553899 3564.087532,1434.164527 3585.718056,1424.941704 3585.469853,1422.690321 3595.961407,1432.064469 3613.094749,1426.268720 3614.790673,1413.408611 3603.403044,1404.719803 3608.080583,1397.017022 3611.929906,1397.448228 3619.747126,1386.330839 3603.802647,1374.530654 3597.099106,1382.929100 3598.471153,1384.504142 3596.227368,1387.211195 3593.955301,1385.888591 3584.581734,1399.262734 3586.862195,1401.506699 3579.485910,1411.032564 3569.345214,1415.177107 3564.927736,1402.372710 3571.171973,1392.624013 3574.338429,1392.151085 3581.485034,1382.405275 3578.981045,1380.618518 3567.363630,1371.709825"/>
    <poly id="225239583" type="leisure.park" color="207,245,201" fill="1" layer="-2.00" shape="3541.075999,1571.213870 3553.818075,1597.142273 3620.503465,1568.436173 3653.674291,1559.730130 3702.521105,1558.386359 3697.234535,1549.197844 3689.924372,1541.892830 3675.632888,1536.549745 3659.311499,1533.323385 3647.555130,1533.197278 3629.035502,1536.751933 3625.451022,1540.392629 3611.887947,1540.960237 3606.256760,1543.942385 3607.887183,1548.889990 3582.418584,1558.869345 3581.255917,1555.282991 3541.142645,1571.124449 3541.075999,1571.213870"/>
    <poly id="225240540" type="amenity.marketplace" color="237,199,199" fill="1" layer="-1.00" shape="3652.442014,1803.201600 3684.265880,1784.660727 3806.813234,1993.379698 3774.998419,2011.919980 3652.442014,1803.201600"/>
    <poly id="225240540#1" type="building.yes" color="255,230,230" fill="1" layer="-1.00" shape="3652.442014,1803.201600 3684.265880,1784.660727 3806.813234,1993.379698 3774.998419,2011.919980 3652.442014,1803.201600"/>
    <poly id="225247947" type="leisure.park" color="207,245,201" fill="1" layer="-2.00" shape="2895.119106,1687.128546 2904.792054,1712.862102 2914.607637,1709.208096 2904.934617,1683.463427 2895.119106,1687.128546"/>
    <poly id="225247966" type="leisure.park" color="207,245,201" fill="1" layer="-2.00" shape="2909.585300,1724.241651 2932.145847,1775.024228 2941.174140,1771.044449 2918.613645,1720.261846 2909.585300,1724.241651"/>
    <poly id="225248508" type="amenity.parking" color="184,184,179" fill="1" layer="-1.00" shape="2747.985807,1772.857789 2752.066511,1774.618618 2882.333812,1725.425098 2864.077263,1708.019210 2851.656970,1709.943207 2819.445395,1723.750838 2789.921982,1736.434753 2770.801321,1746.957905 2760.283114,1759.444461 2747.985807,1772.857789"/>
    <poly id="225250782" type="amenity.parking" color="184,184,179" fill="1" layer="-1.00" shape="2975.994740,1598.047991 2986.161101,1620.602018 2989.020311,1627.081337 2896.476233,1666.922017 2891.481491,1668.466736 2888.629317,1669.170203 2887.522952,1669.902002 2887.128035,1670.971404 2883.424753,1671.738218 2879.872940,1672.470334 2870.957941,1673.196337 2858.292078,1672.269440 2841.470508,1669.682291 2811.501793,1664.274403 2793.891210,1661.172853 2773.025555,1658.978404 2749.247741,1658.298513 2740.302657,1657.592828 2734.187134,1655.562139 2729.126037,1652.655788 2724.986503,1649.097034 2721.853949,1645.917548 2718.899517,1641.937095 2716.320990,1635.743929 2714.821336,1629.496398 2714.530653,1622.671518 2715.455312,1612.305071 2717.059702,1591.530031 2720.122252,1554.233266 2724.129775,1552.619831 2728.775778,1550.745167 2733.845228,1575.566249 2738.773897,1599.755836 2747.702981,1609.687202 2759.526791,1621.701203 2767.020693,1627.804635 2776.243946,1633.980938 2782.426240,1637.765120 2789.790429,1641.693832 2794.889472,1644.144704 2799.996841,1646.584400 2816.667255,1652.891927 2840.553239,1657.989525 2860.231092,1658.485441 2878.085910,1656.977683 2902.897721,1650.898623 2925.888648,1642.127583 2946.810216,1628.402082 2960.271512,1616.787974 2975.994740,1598.047991"/>
    <poly id="225254094" type="leisure.park" color="207,245,201" fill="1" layer="-2.00" shape="3276.187566,1272.678023 3266.338941,1310.569487 3345.395653,1330.572979 3356.984918,1285.638335 3353.556932,1285.181203 3346.869808,1284.287605 3337.990043,1288.920510 3327.718455,1292.589207 3318.150024,1291.999534 3308.930268,1288.964308 3300.389662,1284.579573 3293.737785,1277.402136 3286.830998,1275.544754 3276.187566,1272.678023"/>
    <poly id="225254191" type="building.train_station" color="255,230,230" fill="1" layer="-1.00" shape="3293.404151,1268.590437 3295.157872,1272.237950 3297.389897,1275.625746 3300.040590,1278.687763 3303.075816,1281.379906 3306.444473,1283.647134 3310.078797,1285.456763 3313.919459,1286.776032 3317.898797,1287.583355 3321.957583,1287.857072 3326.011495,1287.597954 3329.993074,1286.806618 3333.843499,1285.505805 3337.478549,1283.707388 3340.856468,1281.456155 3343.901570,1278.775000 3346.572201,1275.719813 3293.404151,1268.590437"/>
    <poly id="225254358" type="leisure.park" color="207,245,201" fill="1" layer="-2.00" shape="2983.030635,1171.877274 2981.002394,1172.328887 2979.600605,1173.041183 2978.717380,1174.203881 2978.267884,1175.762254 2978.368947,1177.582005 2978.568851,1179.145509 2979.399352,1180.503383 2980.672791,1181.424219 3071.682720,1206.155284 3075.239653,1194.932104 2983.030635,1171.877274"/>
    <poly id="225259311" type="leisure.park" color="207,245,201" fill="1" layer="-2.00" shape="3099.623680,1202.701502 3097.568221,1211.213173 3161.806046,1227.154311 3230.438472,1243.233372 3236.249395,1244.212603 3238.877935,1241.168864 3238.101108,1236.457755 3232.777724,1234.386089 3164.271520,1219.205086 3099.623680,1202.701502"/>
    <poly id="225259997" type="leisure.park" color="207,245,201" fill="1" layer="-2.00" shape="3253.138620,1246.733437 3254.921167,1239.711939 3361.851022,1258.916458 3362.364124,1264.307193 3358.986597,1266.602820 3253.138620,1246.733437"/>
    <poly id="225260672" type="leisure.park" color="207,245,201" fill="1" layer="-2.00" shape="3484.008616,1283.478867 3485.275754,1273.553488 3634.364856,1292.255188 3632.797615,1304.436914 3484.008616,1283.478867"/>
    <poly id="225262187" type="leisure.park" color="207,245,201" fill="1" layer="-2.00" shape="3121.521792,1023.163605 3115.975134,1035.381962 3164.212769,1040.801233 3165.092259,1038.306388 3121.521792,1023.163605"/>
    <poly id="225263606" type="leisure.park" color="207,245,201" fill="1" layer="-2.00" shape="3351.936024,1113.441628 3353.252450,1108.922302 3432.175447,1132.547132 3433.162069,1141.774733 3428.874113,1141.347622 3413.466501,1138.557510 3351.936024,1113.441628"/>
    <poly id="225266935" type="leisure.park" color="207,245,201" fill="1" layer="-2.00" shape="3806.055715,1329.771754 3808.172175,1318.606437 3650.425026,1294.518033 3648.651600,1307.212310 3806.055715,1329.771754"/>
    <poly id="225266942" type="leisure.park" color="207,245,201" fill="1" layer="-2.00" shape="3634.482576,1246.837094 3633.362439,1259.036951 3643.574869,1259.965322 3644.695124,1247.776567 3634.482576,1246.837094"/>
    <poly id="225267076" type="leisure.park" color="207,245,201" fill="1" layer="-2.00" shape="3633.449278,1263.943108 3631.924294,1276.135551 3641.244896,1277.294073 3642.769795,1265.090531 3633.449278,1263.943108"/>
    <poly id="225267134" type="leisure.park" color="207,245,201" fill="1" layer="-2.00" shape="3647.682328,1260.027842 3657.362205,1260.816759 3658.335045,1249.106721 3648.655052,1248.306703 3647.682328,1260.027842"/>
    <poly id="225267135" type="leisure.park" color="207,245,201" fill="1" layer="-2.00" shape="3646.166801,1277.893160 3647.346588,1265.759372 3656.335612,1266.621186 3655.155911,1278.766073 3646.166801,1277.893160"/>
    <poly id="225267782" type="leisure.park" color="207,245,201" fill="1" layer="-2.00" shape="3688.215871,1454.216092 3702.630298,1447.101986 3714.784736,1441.840243 3729.918757,1438.738459 3730.845780,1440.528503 3695.905962,1454.146125 3688.215871,1454.216092"/>
    <poly id="225279520" type="amenity.parking" color="184,184,179" fill="1" layer="-1.00" shape="2659.947470,1696.757853 2698.810058,1704.636397 2699.283758,1702.056422 2700.221333,1702.225393 2702.373246,1676.826970 2701.439180,1676.125084 2700.619470,1675.022479 2700.247470,1674.004555 2700.328536,1672.738209 2700.941733,1671.566866 2701.856839,1670.215108 2701.948879,1666.484077 2702.165868,1658.932898 2709.502258,1579.465608 2692.339681,1575.594140 2678.200921,1630.689369 2659.947470,1696.757853"/>
    <poly id="225279553" type="building.university" color="255,230,230" fill="1" layer="-1.00" shape="2562.370278,1759.230209 2583.373615,1731.659037 2614.378674,1757.960980 2596.512162,1782.794233 2562.370278,1759.230209"/>
    <poly id="225279692" type="building.university" color="255,230,230" fill="1" layer="-1.00" shape="2623.509749,1765.114898 2634.591398,1773.471989 2610.855846,1804.687443 2599.782647,1796.330309 2623.509749,1765.114898"/>
    <poly id="225282515" type="building.university" color="255,230,230" fill="1" layer="-1.00" shape="2513.488483,1658.290479 2586.365423,1720.529632 2625.208870,1753.708814 2634.829545,1743.583924 2631.871372,1741.024561 2639.709741,1732.392682 2626.247787,1719.228331 2628.691364,1714.465304 2629.329263,1711.406432 2645.640379,1714.419681 2649.600536,1702.215590 2629.884418,1696.658201 2626.826498,1708.853963 2624.590552,1712.360575 2621.912151,1715.438310 2619.865507,1713.880783 2613.359624,1719.791541 2586.304583,1696.628162 2573.002240,1685.238706 2575.847106,1674.632439 2580.370701,1675.034666 2585.381490,1654.261385 2576.085665,1651.194474 2577.844196,1646.215733 2580.327504,1645.748694 2587.725640,1614.129148 2565.272161,1607.131814 2558.051653,1633.332095 2567.573116,1636.174863 2560.812164,1662.826063 2556.499367,1661.511555 2553.155658,1666.504969 2524.890051,1642.875635 2513.488483,1658.290479"/>
    <poly id="225282859" type="building.university" color="255,230,230" fill="1" layer="-1.00" shape="2578.396928,1682.269049 2603.102517,1688.446269 2609.433432,1663.608668 2611.719486,1664.608892 2613.017361,1659.967471 2606.450294,1657.441483 2608.441621,1653.926026 2630.440964,1659.251323 2630.025246,1663.540434 2624.139904,1662.695593 2623.049536,1666.979838 2625.253935,1668.269466 2621.678124,1682.823585 2620.952230,1684.573267 2634.088820,1687.160666 2637.962369,1666.497850 2636.141100,1665.604340 2637.784288,1660.915325 2646.833005,1662.796712 2644.559020,1669.489865 2651.119704,1671.327639 2654.394983,1658.008605 2655.708828,1653.267129 2644.796363,1650.459306 2618.922668,1643.815368 2613.622824,1642.454443 2595.179006,1637.718011 2592.670852,1635.498655 2597.476949,1616.292623 2618.324434,1621.062349 2620.463418,1607.975840 2664.213491,1618.162600 2668.280833,1603.859306 2624.017479,1592.889041 2626.050673,1584.777087 2626.548029,1581.108919 2618.158459,1578.477646 2618.998189,1571.708930 2671.811331,1585.297909 2675.563984,1573.439907 2622.718306,1558.163737 2624.024538,1553.511140 2624.315778,1552.176241 2625.973443,1544.489624 2657.038172,1552.539959 2655.488335,1556.384374 2664.784369,1558.552145 2665.437340,1554.382965 2679.810958,1557.580720 2683.129403,1545.271562 2669.159601,1541.059813 2670.246482,1538.218833 2658.238738,1534.621780 2656.239948,1538.248307 2629.709426,1530.833272 2630.141755,1529.252831 2607.243099,1523.380755 2594.572845,1572.167893 2589.589548,1571.303634 2583.655723,1589.842894 2575.944915,1587.660562 2570.467058,1608.082912 2587.725640,1614.129148 2580.327504,1645.748694 2588.936256,1647.467554 2580.370701,1675.034666 2578.396928,1682.269049"/>
    <poly id="225283926" type="building.yes" color="255,230,230" fill="1" layer="-1.00" shape="2680.739845,1294.738792 2663.599673,1355.445901 2711.674322,1368.967947 2717.764476,1343.555398 2725.696779,1345.957872 2719.817805,1368.670747 2737.280241,1373.916133 2751.411049,1313.281374 2734.925469,1308.815160 2728.856621,1331.063505 2709.409419,1325.503405 2711.756044,1316.611468 2710.707981,1316.354701 2714.485270,1299.833777 2716.835322,1290.397826 2719.710363,1289.416542 2726.592103,1294.026855 2748.907280,1299.660457 2751.118427,1293.445298 2756.221068,1294.430687 2756.877266,1286.031733 2752.133289,1280.047261 2748.635418,1263.793306 2735.426661,1252.547013 2732.747936,1252.871477 2730.041623,1251.120175 2721.940322,1267.880825 2725.029577,1272.748174 2690.123969,1264.399944 2685.770596,1282.458238 2714.278557,1291.143037 2705.161732,1324.865412 2691.047539,1321.498678 2696.724809,1298.865356 2680.739845,1294.738792"/>
    <poly id="225284033" type="leisure.park" color="207,245,201" fill="1" layer="-2.00" shape="2730.041623,1251.120175 2683.347209,1241.026785 2692.562389,1259.970046 2719.994019,1267.154973 2730.041623,1251.120175"/>
    <poly id="225284739" type="building.office" color="255,230,230" fill="1" layer="-1.00" shape="2507.189002,1538.949656 2554.458536,1563.069171 2562.008856,1547.900959 2550.411290,1541.247309 2558.115251,1526.277504 2572.844059,1497.665309 2554.201755,1487.923928 2531.324322,1531.743238 2515.862879,1523.093788 2507.189002,1538.949656"/>
    <poly id="225284838" type="amenity.parking" color="184,184,179" fill="1" layer="-1.00" shape="2452.358214,1626.206497 2490.989313,1645.443180 2519.177180,1613.297992 2462.917818,1594.557520 2452.358214,1626.206497"/>