<?xml version="1.0" encoding="UTF-8"?>

<!-- generated on 2022-10-19 17:20:15 by Eclipse SUMO netedit Version 1.14.1
<configuration xmlns:xsi="http://www.w3.org/2001/XMLSchema-instance" xsi:noNamespaceSchemaLocation="http://sumo.dlr.de/xsd/netconvertConfiguration.xsd">

    <input>
        <sumo-net-file value="copynet.net.xml"/>
    </input>

    <output>
        <output-file value="copynet.net.xml"/>
    </output>

    <processing>
        <geometry.min-radius.fix.railways value="false"/>
        <geometry.max-grade.fix value="false"/>
        <offset.disable-normalization value="true"/>
        <lefthand value="false"/>
    </processing>

    <junctions>
        <no-turnarounds value="true"/>
        <junctions.corner-detail value="5"/>
        <junctions.limit-turn-speed value="5.5"/>
        <rectangular-lane-cut value="false"/>
    </junctions>

    <pedestrian>
        <walkingareas value="false"/>
    </pedestrian>

</configuration>
-->

<net version="1.9" junctionCornerDetail="5" limitTurnSpeed="5.50" xmlns:xsi="http://www.w3.org/2001/XMLSchema-instance" xsi:noNamespaceSchemaLocation="http://sumo.dlr.de/xsd/net_file.xsd">

    <location netOffset="0.00,0.00" convBoundary="-110.47,3.14,77.20,87.78" origBoundary="-10000000000.00,-10000000000.00,10000000000.00,10000000000.00" projParameter="!"/>

    <edge id=":J11_0" function="internal">
        <lane id=":J11_0_0" index="0" speed="13.89" length="9.56" shape="-61.02,81.66 -63.82,81.16 -65.74,80.85 -67.68,80.68 -70.51,80.63"/>
    </edge>
    <edge id=":J11_1" function="internal">
        <lane id=":J11_1_0" index="0" speed="6.68" length="8.44" shape="-65.13,72.44 -64.86,74.79 -64.00,76.58 -62.54,77.82 -60.48,78.51"/>
    </edge>
    <edge id=":J11_2" function="internal">
        <lane id=":J11_2_0" index="0" speed="7.14" length="11.00" shape="-65.13,72.44 -65.51,76.03 -66.53,78.59 -68.20,80.12 -70.51,80.63"/>
    </edge>
    <edge id=":J11_3" function="internal">
        <lane id=":J11_3_0" index="0" speed="13.89" length="10.10" shape="-70.50,77.43 -67.52,77.48 -65.47,77.66 -63.42,77.98 -60.48,78.51"/>
    </edge>
    <edge id=":J12_0" function="internal">
        <lane id=":J12_0_0" index="0" speed="6.81" length="8.11" shape="-59.01,13.84 -60.91,14.50 -62.31,15.70 -63.22,17.43 -63.63,19.69"/>
    </edge>
    <edge id=":J12_1" function="internal">
        <lane id=":J12_1_0" index="0" speed="13.89" length="9.26" shape="-59.01,13.84 -61.71,14.35 -63.57,14.67 -65.44,14.84 -68.19,14.91"/>
    </edge>
    <edge id=":J12_2" function="internal">
        <lane id=":J12_2_0" index="0" speed="3.24" length="1.59" shape="-59.01,13.84 -59.30,12.27"/>
    </edge>
    <edge id=":J12_10" function="internal">
        <lane id=":J12_10_0" index="0" speed="3.24" length="1.61" shape="-59.30,12.27 -59.59,10.69"/>
    </edge>
    <edge id=":J12_3" function="internal">
        <lane id=":J12_3_0" index="0" speed="13.89" length="8.71" shape="-68.22,11.71 -65.64,11.64 -63.88,11.48 -62.13,11.18 -59.59,10.69"/>
    </edge>
    <edge id=":J12_4" function="internal">
        <lane id=":J12_4_0" index="0" speed="13.89" length="8.71" shape="-68.22,11.71 -65.64,11.64 -63.88,11.48 -62.13,11.18 -59.59,10.69"/>
    </edge>
    <edge id=":J12_5" function="internal">
        <lane id=":J12_5_0" index="0" speed="6.79" length="2.26" shape="-68.22,11.71 -66.01,12.19"/>
    </edge>
    <edge id=":J12_11" function="internal">
        <lane id=":J12_11_0" index="0" speed="6.79" length="8.25" shape="-66.01,12.19 -64.51,13.68 -63.72,16.18 -63.63,19.69"/>
    </edge>
    <edge id=":J12_6" function="internal">
        <lane id=":J12_6_0" index="0" speed="13.89" length="8.71" shape="-68.22,11.71 -65.64,11.64 -63.88,11.48 -62.13,11.18 -59.59,10.69"/>
    </edge>
    <edge id=":J12_7" function="internal">
        <lane id=":J12_7_0" index="0" speed="13.89" length="8.71" shape="-68.22,11.71 -65.64,11.64 -63.88,11.48 -62.13,11.18 -59.59,10.69"/>
    </edge>
    <edge id=":J12_8" function="internal">
        <lane id=":J12_8_0" index="0" speed="6.79" length="10.51" shape="-68.22,11.71 -66.01,12.19 -64.51,13.68 -63.72,16.18 -63.63,19.69"/>
    </edge>
    <edge id=":J12_9" function="internal">
        <lane id=":J12_9_0" index="0" speed="3.24" length="3.20" shape="-68.22,11.71 -68.19,14.91"/>
    </edge>
    <edge id=":J13_0" function="internal">
        <lane id=":J13_0_0" index="0" speed="13.89" length="11.30" shape="-112.01,60.03 -112.02,48.73"/>
    </edge>
    <edge id=":J13_1" function="internal">
        <lane id=":J13_1_0" index="0" speed="7.32" length="2.64" shape="-112.01,60.03 -111.49,57.56 -111.41,57.47"/>
    </edge>
    <edge id=":J13_4" function="internal">
        <lane id=":J13_4_0" index="0" speed="7.32" length="9.13" shape="-111.41,57.47 -109.86,55.79 -107.11,54.71 -103.24,54.33"/>
    </edge>
    <edge id=":J13_2" function="internal">
        <lane id=":J13_2_0" index="0" speed="6.48" length="9.03" shape="-108.82,48.75 -108.49,51.21 -107.45,52.96 -105.70,54.00 -103.24,54.33"/>
    </edge>
    <edge id=":J13_3" function="internal">
        <lane id=":J13_3_0" index="0" speed="13.89" length="11.23" shape="-108.82,48.75 -108.81,59.98"/>
    </edge>
    <edge id=":J14_0" function="internal">
        <lane id=":J14_0_0" index="0" speed="6.47" length="9.03" shape="-64.79,48.47 -64.47,50.93 -63.44,52.69 -61.70,53.74 -59.24,54.09"/>
    </edge>
    <edge id=":J14_1" function="internal">
        <lane id=":J14_1_0" index="0" speed="13.89" length="11.25" shape="-64.79,48.47 -64.95,59.72"/>
    </edge>
    <edge id=":J14_2" function="internal">
        <lane id=":J14_2_0" index="0" speed="13.89" length="11.26" shape="-70.50,54.13 -59.24,54.09"/>
    </edge>
    <edge id=":J14_3" function="internal">
        <lane id=":J14_3_0" index="0" speed="6.46" length="4.14" shape="-70.50,54.13 -68.04,54.46 -66.62,55.31"/>
    </edge>
    <edge id=":J14_4" function="internal">
        <lane id=":J14_4_0" index="0" speed="6.46" length="4.89" shape="-66.62,55.31 -66.30,55.51 -65.26,57.26 -64.95,59.72"/>
    </edge>
    <edge id=":J15_0" function="internal">
        <lane id=":J15_0_0" index="0" speed="13.89" length="11.19" shape="-14.04,48.49 -14.11,59.68"/>
    </edge>
    <edge id=":J15_1" function="internal">
        <lane id=":J15_1_0" index="0" speed="6.51" length="9.01" shape="-22.85,54.06 -20.41,53.71 -18.66,52.66 -17.60,50.92 -17.24,48.48"/>
    </edge>
    <edge id=":J15_2" function="internal">
        <lane id=":J15_2_0" index="0" speed="7.29" length="11.71" shape="-22.85,54.06 -19.01,54.41 -16.27,55.46 -14.64,57.22 -14.11,59.68"/>
    </edge>
    <edge id=":J15_3" function="internal">
        <lane id=":J15_3_0" index="0" speed="13.89" length="11.17" shape="-17.31,59.65 -17.24,48.48"/>
    </edge>
    <edge id=":J16_0" function="internal">
        <lane id=":J16_0_0" index="0" speed="6.55" length="8.85" shape="-108.75,25.32 -108.40,27.67 -107.36,29.39 -105.64,30.46 -103.24,30.90"/>
    </edge>
    <edge id=":J16_1" function="internal">
        <lane id=":J16_1_0" index="0" speed="13.89" length="10.82" shape="-108.75,25.32 -108.74,36.14"/>
    </edge>
    <edge id=":J16_2" function="internal">
        <lane id=":J16_2_0" index="0" speed="13.89" length="10.79" shape="-111.94,36.12 -111.95,25.33"/>
    </edge>
    <edge id=":J16_3" function="internal">
        <lane id=":J16_3_0" index="0" speed="7.17" length="2.49" shape="-111.94,36.12 -111.39,33.70"/>
    </edge>
    <edge id=":J16_4" function="internal">
        <lane id=":J16_4_0" index="0" speed="7.17" length="9.02" shape="-111.39,33.70 -109.75,32.02 -107.03,31.09 -103.24,30.90"/>
    </edge>
    <edge id=":J17_0" function="internal">
        <lane id=":J17_0_0" index="0" speed="6.34" length="9.04" shape="-64.09,26.71 -63.90,29.21 -62.94,30.98 -61.22,32.03 -58.73,32.35"/>
    </edge>
    <edge id=":J17_1" function="internal">
        <lane id=":J17_1_0" index="0" speed="13.89" length="11.39" shape="-64.09,26.71 -64.64,38.08"/>
    </edge>
    <edge id=":J17_2" function="internal">
        <lane id=":J17_2_0" index="0" speed="13.89" length="11.37" shape="-70.11,32.29 -58.73,32.35"/>
    </edge>
    <edge id=":J17_3" function="internal">
        <lane id=":J17_3_0" index="0" speed="6.57" length="4.27" shape="-70.11,32.29 -67.69,32.74 -66.17,33.72"/>
    </edge>
    <edge id=":J17_4" function="internal">
        <lane id=":J17_4_0" index="0" speed="6.57" length="4.76" shape="-66.17,33.72 -65.97,33.86 -64.95,35.64 -64.64,38.08"/>
    </edge>
    <edge id=":J18_0" function="internal">
        <lane id=":J18_0_0" index="0" speed="13.89" length="11.50" shape="-14.42,25.85 -14.00,37.35"/>
    </edge>
    <edge id=":J18_1" function="internal">
        <lane id=":J18_1_0" index="0" speed="6.41" length="9.04" shape="-22.95,31.79 -20.49,31.40 -18.78,30.31 -17.82,28.53 -17.62,26.04"/>
    </edge>
    <edge id=":J18_2" function="internal">
        <lane id=":J18_2_0" index="0" speed="7.32" length="11.89" shape="-22.95,31.79 -19.02,32.09 -16.22,33.11 -14.55,34.87 -14.00,37.35"/>
    </edge>
    <edge id=":J18_3" function="internal">
        <lane id=":J18_3_0" index="0" speed="13.89" length="11.30" shape="-17.20,37.34 -17.62,26.04"/>
    </edge>
    <edge id=":J2_0" function="internal">
        <lane id=":J2_0_0" index="0" speed="6.08" length="7.65" shape="-107.00,80.53 -109.07,80.23 -110.55,79.34 -111.46,77.86 -111.79,75.80"/>
    </edge>
    <edge id=":J2_1" function="internal">
        <lane id=":J2_1_0" index="0" speed="3.91" length="2.55" shape="-108.59,75.75 -108.48,76.44 -108.18,76.93 -107.68,77.23 -106.99,77.33"/>
    </edge>
    <edge id=":J20_0" function="internal">
        <lane id=":J20_0_0" index="0" speed="13.89" length="10.58" shape="8.47,87.13 -2.07,88.10"/>
    </edge>
    <edge id=":J20_1" function="internal">
        <lane id=":J20_1_0" index="0" speed="7.03" length="2.50" shape="8.47,87.13 5.99,86.82"/>
    </edge>
    <edge id=":J20_4" function="internal">
        <lane id=":J20_4_0" index="0" speed="7.03" length="8.89" shape="5.99,86.82 4.20,85.36 3.11,82.76 2.72,79.02"/>
    </edge>
    <edge id=":J20_2" function="internal">
        <lane id=":J20_2_0" index="0" speed="6.60" length="8.72" shape="-2.36,84.92 -0.12,84.37 1.48,83.21 2.42,81.42 2.72,79.02"/>
    </edge>
    <edge id=":J20_3" function="internal">
        <lane id=":J20_3_0" index="0" speed="13.89" length="10.58" shape="-2.36,84.92 8.17,83.94"/>
    </edge>
    <edge id=":J21_0" function="internal">
        <lane id=":J21_0_0" index="0" speed="6.39" length="9.04" shape="2.03,10.54 1.64,8.07 0.56,6.37 -1.22,5.42 -3.71,5.22"/>
    </edge>
    <edge id=":J21_1" function="internal">
        <lane id=":J21_1_0" index="0" speed="7.16" length="12.07" shape="2.03,10.54 2.37,6.57 3.48,3.81 5.37,2.28 8.03,1.97"/>
    </edge>
    <edge id=":J21_2" function="internal">
        <lane id=":J21_2_0" index="0" speed="7.16" length="12.07" shape="2.03,10.54 2.37,6.57 3.48,3.81 5.37,2.28 8.03,1.97"/>
    </edge>
    <edge id=":J21_3" function="internal">
        <lane id=":J21_3_0" index="0" speed="13.89" length="11.45" shape="7.72,5.16 4.54,4.91 2.01,4.88 -0.52,5.01 -3.71,5.22"/>
    </edge>
    <edge id=":J21_4" function="internal">
        <lane id=":J21_4_0" index="0" speed="3.24" length="1.58" shape="7.72,5.16 7.87,3.59"/>
    </edge>
    <edge id=":J21_10" function="internal">
        <lane id=":J21_10_0" index="0" speed="3.24" length="1.62" shape="7.87,3.59 8.03,1.97"/>
    </edge>
    <edge id=":J21_5" function="internal">
        <lane id=":J21_5_0" index="0" speed="13.89" length="11.97" shape="-3.92,2.03 -0.65,1.81 2.06,1.69 4.77,1.73 8.03,1.97"/>
    </edge>
    <edge id=":J21_6" function="internal">
        <lane id=":J21_6_0" index="0" speed="13.89" length="11.97" shape="-3.92,2.03 -0.65,1.81 2.06,1.69 4.77,1.73 8.03,1.97"/>
    </edge>
    <edge id=":J21_7" function="internal">
        <lane id=":J21_7_0" index="0" speed="13.89" length="11.97" shape="-3.92,2.03 -0.65,1.81 2.06,1.69 4.77,1.73 8.03,1.97"/>
    </edge>
    <edge id=":J21_8" function="internal">
        <lane id=":J21_8_0" index="0" speed="13.89" length="11.97" shape="-3.92,2.03 -0.65,1.81 2.06,1.69 4.77,1.73 8.03,1.97"/>
    </edge>
    <edge id=":J21_9" function="internal">
        <lane id=":J21_9_0" index="0" speed="3.24" length="3.20" shape="-3.92,2.03 -3.71,5.22"/>
    </edge>
    <edge id=":J22_0" function="internal">
        <lane id=":J22_0_0" index="0" speed="13.89" length="10.45" shape="25.51,85.55 15.11,86.51"/>
    </edge>
    <edge id=":J22_1" function="internal">
        <lane id=":J22_1_0" index="0" speed="6.97" length="2.50" shape="25.51,85.55 23.03,85.24"/>
    </edge>
    <edge id=":J22_4" function="internal">
        <lane id=":J22_4_0" index="0" speed="6.97" length="8.82" shape="23.03,85.24 21.26,83.79 20.22,81.20 19.90,77.47"/>
    </edge>
    <edge id=":J22_2" function="internal">
        <lane id=":J22_2_0" index="0" speed="6.62" length="8.66" shape="14.81,83.33 17.02,82.79 18.60,81.63 19.56,79.86 19.90,77.47"/>
    </edge>
    <edge id=":J22_3" function="internal">
        <lane id=":J22_3_0" index="0" speed="13.89" length="10.45" shape="14.81,83.33 25.21,82.37"/>
    </edge>
    <edge id=":J23_0" function="internal">
        <lane id=":J23_0_0" index="0" speed="13.89" length="10.53" shape="25.88,6.94 15.40,5.91"/>
    </edge>
    <edge id=":J23_1" function="internal">
        <lane id=":J23_1_0" index="0" speed="3.24" length="1.60" shape="25.88,6.94 26.04,5.34"/>
    </edge>
    <edge id=":J23_10" function="internal">
        <lane id=":J23_10_0" index="0" speed="3.24" length="1.60" shape="26.04,5.34 26.19,3.75"/>
    </edge>
    <edge id=":J23_2" function="internal">
        <lane id=":J23_2_0" index="0" speed="13.89" length="10.53" shape="15.71,2.73 26.19,3.75"/>
    </edge>
    <edge id=":J23_3" function="internal">
        <lane id=":J23_3_0" index="0" speed="13.89" length="10.53" shape="15.71,2.73 26.19,3.75"/>
    </edge>
    <edge id=":J23_4" function="internal">
        <lane id=":J23_4_0" index="0" speed="13.89" length="10.53" shape="15.71,2.73 26.19,3.75"/>
    </edge>
    <edge id=":J23_5" function="internal">
        <lane id=":J23_5_0" index="0" speed="13.89" length="10.53" shape="15.71,2.73 26.19,3.75"/>
    </edge>
    <edge id=":J23_6" function="internal">
        <lane id=":J23_6_0" index="0" speed="3.24" length="3.20" shape="15.71,2.73 15.40,5.91"/>
    </edge>
    <edge id=":J23_7" function="internal">
        <lane id=":J23_7_0" index="0" speed="6.60" length="8.70" shape="20.45,11.82 20.15,9.42 19.21,7.64 17.63,6.47 15.40,5.91"/>
    </edge>
    <edge id=":J23_8" function="internal">
        <lane id=":J23_8_0" index="0" speed="7.01" length="11.36" shape="20.45,11.82 20.84,8.08 21.92,5.49 23.71,4.05 26.19,3.75"/>
    </edge>
    <edge id=":J23_9" function="internal">
        <lane id=":J23_9_0" index="0" speed="7.01" length="11.36" shape="20.45,11.82 20.84,8.08 21.92,5.49 23.71,4.05 26.19,3.75"/>
    </edge>
    <edge id=":J24_0" function="internal">
        <lane id=":J24_0_0" index="0" speed="13.89" length="10.37" shape="40.46,84.17 30.14,85.12"/>
    </edge>
    <edge id=":J24_1" function="internal">
        <lane id=":J24_1_0" index="0" speed="6.93" length="2.50" shape="40.46,84.17 37.98,83.87"/>
    </edge>
    <edge id=":J24_4" function="internal">
        <lane id=":J24_4_0" index="0" speed="6.93" length="8.78" shape="37.98,83.87 36.23,82.42 35.22,79.84 34.94,76.11"/>
    </edge>
    <edge id=":J24_2" function="internal">
        <lane id=":J24_2_0" index="0" speed="6.63" length="8.62" shape="29.84,81.94 32.03,81.40 33.61,80.25 34.58,78.49 34.94,76.11"/>
    </edge>
    <edge id=":J24_3" function="internal">
        <lane id=":J24_3_0" index="0" speed="13.89" length="10.37" shape="29.84,81.94 40.17,80.99"/>
    </edge>
    <edge id=":J25_0" function="internal">
        <lane id=":J25_0_0" index="0" speed="13.89" length="10.61" shape="41.69,8.49 31.14,7.45"/>
    </edge>
    <edge id=":J25_1" function="internal">
        <lane id=":J25_1_0" index="0" speed="3.24" length="1.60" shape="41.69,8.49 41.85,6.89"/>
    </edge>
    <edge id=":J25_10" function="internal">
        <lane id=":J25_10_0" index="0" speed="3.24" length="1.60" shape="41.85,6.89 42.01,5.30"/>
    </edge>
    <edge id=":J25_2" function="internal">
        <lane id=":J25_2_0" index="0" speed="13.89" length="10.61" shape="31.45,4.27 42.01,5.30"/>
    </edge>
    <edge id=":J25_3" function="internal">
        <lane id=":J25_3_0" index="0" speed="13.89" length="10.61" shape="31.45,4.27 42.01,5.30"/>
    </edge>
    <edge id=":J25_4" function="internal">
        <lane id=":J25_4_0" index="0" speed="13.89" length="10.61" shape="31.45,4.27 42.01,5.30"/>
    </edge>
    <edge id=":J25_5" function="internal">
        <lane id=":J25_5_0" index="0" speed="13.89" length="10.61" shape="31.45,4.27 42.01,5.30"/>
    </edge>
    <edge id=":J25_6" function="internal">
        <lane id=":J25_6_0" index="0" speed="3.24" length="3.20" shape="31.45,4.27 31.14,7.45"/>
    </edge>
    <edge id=":J25_7" function="internal">
        <lane id=":J25_7_0" index="0" speed="6.59" length="8.74" shape="36.18,13.39 35.91,10.98 34.98,9.19 33.38,8.01 31.14,7.45"/>
    </edge>
    <edge id=":J25_8" function="internal">
        <lane id=":J25_8_0" index="0" speed="7.04" length="11.40" shape="36.18,13.39 36.61,9.64 37.72,7.05 39.52,5.60 42.01,5.30"/>
    </edge>
    <edge id=":J25_9" function="internal">
        <lane id=":J25_9_0" index="0" speed="7.04" length="11.40" shape="36.18,13.39 36.61,9.64 37.72,7.05 39.52,5.60 42.01,5.30"/>
    </edge>
    <edge id=":J26_0" function="internal">
        <lane id=":J26_0_0" index="0" speed="13.89" length="10.60" shape="56.12,82.73 45.56,83.70"/>
    </edge>
    <edge id=":J26_1" function="internal">
        <lane id=":J26_1_0" index="0" speed="7.04" length="2.50" shape="56.12,82.73 53.64,82.42"/>
    </edge>
    <edge id=":J26_4" function="internal">
        <lane id=":J26_4_0" index="0" speed="7.04" length="8.90" shape="53.64,82.42 51.85,80.96 50.75,78.36 50.35,74.62"/>
    </edge>
    <edge id=":J26_2" function="internal">
        <lane id=":J26_2_0" index="0" speed="6.59" length="8.73" shape="45.27,80.52 47.52,79.97 49.12,78.80 50.06,77.02 50.35,74.62"/>
    </edge>
    <edge id=":J26_3" function="internal">
        <lane id=":J26_3_0" index="0" speed="13.89" length="10.60" shape="45.27,80.52 55.83,79.54"/>
    </edge>
    <edge id=":J27_0" function="internal">
        <lane id=":J27_0_0" index="0" speed="6.63" length="8.63" shape="49.61,14.62 49.26,12.24 48.31,10.47 46.73,9.31 44.55,8.77"/>
    </edge>
    <edge id=":J27_1" function="internal">
        <lane id=":J27_1_0" index="0" speed="6.94" length="11.29" shape="49.61,14.62 49.91,10.90 50.95,8.32 52.71,6.88 55.19,6.59"/>
    </edge>
    <edge id=":J27_2" function="internal">
        <lane id=":J27_2_0" index="0" speed="6.94" length="11.29" shape="49.61,14.62 49.91,10.90 50.95,8.32 52.71,6.88 55.19,6.59"/>
    </edge>
    <edge id=":J27_3" function="internal">
        <lane id=":J27_3_0" index="0" speed="13.89" length="10.39" shape="54.88,9.78 44.55,8.77"/>
    </edge>
    <edge id=":J27_4" function="internal">
        <lane id=":J27_4_0" index="0" speed="3.24" length="1.60" shape="54.88,9.78 55.04,8.18"/>
    </edge>
    <edge id=":J27_10" function="internal">
        <lane id=":J27_10_0" index="0" speed="3.24" length="1.60" shape="55.04,8.18 55.19,6.59"/>
    </edge>
    <edge id=":J27_5" function="internal">
        <lane id=":J27_5_0" index="0" speed="13.89" length="10.39" shape="44.86,5.58 55.19,6.59"/>
    </edge>
    <edge id=":J27_6" function="internal">
        <lane id=":J27_6_0" index="0" speed="13.89" length="10.39" shape="44.86,5.58 55.19,6.59"/>
    </edge>
    <edge id=":J27_7" function="internal">
        <lane id=":J27_7_0" index="0" speed="13.89" length="10.39" shape="44.86,5.58 55.19,6.59"/>
    </edge>
    <edge id=":J27_8" function="internal">
        <lane id=":J27_8_0" index="0" speed="13.89" length="10.39" shape="44.86,5.58 55.19,6.59"/>
    </edge>
    <edge id=":J27_9" function="internal">
        <lane id=":J27_9_0" index="0" speed="3.24" length="3.20" shape="44.86,5.58 44.55,8.77"/>
    </edge>
    <edge id=":J3_0" function="internal">
        <lane id=":J3_0_0" index="0" speed="13.89" length="15.63" shape="-8.33,88.68 -12.17,88.89 -16.14,88.85 -20.10,88.56 -23.91,88.04"/>
    </edge>
    <edge id=":J3_1" function="internal">
        <lane id=":J3_1_0" index="0" speed="6.35" length="9.21" shape="-14.31,80.04 -13.98,82.62 -12.92,84.39 -11.14,85.35 -8.62,85.49"/>
    </edge>
    <edge id=":J3_2" function="internal">
        <lane id=":J3_2_0" index="0" speed="7.74" length="14.84" shape="-14.31,80.04 -14.95,84.15 -16.76,86.86 -19.75,88.15 -23.91,88.04"/>
    </edge>
    <edge id=":J3_3" function="internal">
        <lane id=":J3_3_0" index="0" speed="6.19" length="9.05" shape="-23.37,84.89 -20.83,84.96 -19.01,84.17 -17.90,82.52 -17.51,80.01"/>
    </edge>
    <edge id=":J3_4" function="internal">
        <lane id=":J3_4_0" index="0" speed="13.89" length="14.79" shape="-23.37,84.89 -19.68,85.40 -16.01,85.68 -12.34,85.71 -8.62,85.49"/>
    </edge>
    <edge id=":J4_0" function="internal">
        <lane id=":J4_0_0" index="0" speed="6.26" length="9.05" shape="-18.44,12.22 -18.95,9.75 -20.13,8.13 -21.98,7.38 -24.50,7.47"/>
    </edge>
    <edge id=":J4_1" function="internal">
        <lane id=":J4_1_0" index="0" speed="8.11" length="14.52" shape="-18.44,12.22 -18.14,8.16 -16.67,5.18 -14.04,3.28 -10.24,2.45"/>
    </edge>
    <edge id=":J4_2" function="internal">
        <lane id=":J4_2_0" index="0" speed="8.11" length="14.52" shape="-18.44,12.22 -18.14,8.16 -16.67,5.18 -14.04,3.28 -10.24,2.45"/>
    </edge>
    <edge id=":J4_3" function="internal">
        <lane id=":J4_3_0" index="0" speed="6.64" length="9.39" shape="-10.03,5.64 -12.45,6.18 -14.12,7.42 -15.06,9.37 -15.25,12.03"/>
    </edge>
    <edge id=":J4_4" function="internal">
        <lane id=":J4_4_0" index="0" speed="13.89" length="14.60" shape="-10.03,5.64 -13.70,5.94 -17.29,6.34 -20.87,6.85 -24.50,7.47"/>
    </edge>
    <edge id=":J4_5" function="internal">
        <lane id=":J4_5_0" index="0" speed="3.24" length="1.59" shape="-10.03,5.64 -10.14,4.06"/>
    </edge>
    <edge id=":J4_14" function="internal">
        <lane id=":J4_14_0" index="0" speed="3.24" length="1.61" shape="-10.14,4.06 -10.24,2.45"/>
    </edge>
    <edge id=":J4_6" function="internal">
        <lane id=":J4_6_0" index="0" speed="13.89" length="14.97" shape="-25.08,4.33 -21.39,3.70 -17.69,3.17 -13.97,2.75 -10.24,2.45"/>
    </edge>
    <edge id=":J4_7" function="internal">
        <lane id=":J4_7_0" index="0" speed="13.89" length="14.97" shape="-25.08,4.33 -21.39,3.70 -17.69,3.17 -13.97,2.75 -10.24,2.45"/>
    </edge>
    <edge id=":J4_8" function="internal">
        <lane id=":J4_8_0" index="0" speed="7.80" length="4.29" shape="-25.08,4.33 -20.99,4.17 -20.81,4.24"/>
    </edge>
    <edge id=":J4_9" function="internal">
        <lane id=":J4_9_0" index="0" speed="3.65" length="1.44" shape="-25.08,4.33 -23.76,4.90"/>
    </edge>
    <edge id=":J4_15" function="internal">
        <lane id=":J4_15_0" index="0" speed="7.80" length="10.39" shape="-20.81,4.24 -17.99,5.40 -16.07,8.02 -15.25,12.03"/>
    </edge>
    <edge id=":J4_16" function="internal">
        <lane id=":J4_16_0" index="0" speed="3.65" length="3.23" shape="-23.76,4.90 -23.22,5.61 -23.47,6.47 -24.50,7.47"/>
    </edge>
    <edge id=":J4_10" function="internal">
        <lane id=":J4_10_0" index="0" speed="13.89" length="14.97" shape="-25.08,4.33 -21.39,3.70 -17.69,3.17 -13.97,2.75 -10.24,2.45"/>
    </edge>
    <edge id=":J4_11" function="internal">
        <lane id=":J4_11_0" index="0" speed="13.89" length="14.97" shape="-25.08,4.33 -21.39,3.70 -17.69,3.17 -13.97,2.75 -10.24,2.45"/>
    </edge>
    <edge id=":J4_12" function="internal">
        <lane id=":J4_12_0" index="0" speed="7.80" length="14.68" shape="-25.08,4.33 -20.99,4.17 -17.99,5.40 -16.07,8.02 -15.25,12.03"/>
    </edge>
    <edge id=":J4_13" function="internal">
        <lane id=":J4_13_0" index="0" speed="3.24" length="3.20" shape="-25.08,4.33 -24.50,7.47"/>
    </edge>
    <edge id=":J5_0" function="internal">
        <lane id=":J5_0_0" index="0" speed="8.00" length="14.15" shape="-111.97,20.85 -111.44,17.01 -109.81,14.26 -107.08,12.59 -103.24,12.01"/>
    </edge>
    <edge id=":J5_1" function="internal">
        <lane id=":J5_1_0" index="0" speed="8.00" length="14.15" shape="-111.97,20.85 -111.44,17.01 -109.81,14.26 -107.08,12.59 -103.24,12.01"/>
    </edge>
    <edge id=":J5_2" function="internal">
        <lane id=":J5_2_0" index="0" speed="6.51" length="9.00" shape="-103.22,15.21 -105.66,15.58 -107.39,16.64 -108.43,18.39 -108.77,20.83"/>
    </edge>
    <edge id=":J5_3" function="internal">
        <lane id=":J5_3_0" index="0" speed="3.24" length="1.46" shape="-103.22,15.21 -103.23,13.75"/>
    </edge>
    <edge id=":J5_4" function="internal">
        <lane id=":J5_4_0" index="0" speed="3.24" length="1.74" shape="-103.23,13.75 -103.24,12.01"/>
    </edge>
    <edge id=":J6_0" function="internal">
        <lane id=":J6_0_0" index="0" speed="6.09" length="7.24" shape="78.80,76.26 78.53,78.20 77.71,79.65 76.35,80.59 74.44,81.04"/>
    </edge>
    <edge id=":J6_1" function="internal">
        <lane id=":J6_1_0" index="0" speed="3.91" length="2.41" shape="74.15,77.85 74.78,77.70 75.24,77.39 75.51,76.91 75.60,76.26"/>
    </edge>
    <edge id=":J7_0" function="internal">
        <lane id=":J7_0_0" index="0" speed="6.52" length="8.41" shape="75.60,16.89 75.28,14.64 74.34,12.96 72.76,11.85 70.55,11.31"/>
    </edge>
    <edge id=":J7_1" function="internal">
        <lane id=":J7_1_0" index="0" speed="8.02" length="13.21" shape="70.86,8.13 74.33,8.97 76.81,10.71 78.30,13.35 78.80,16.89"/>
    </edge>
    <edge id=":J7_2" function="internal">
        <lane id=":J7_2_0" index="0" speed="8.02" length="13.21" shape="70.86,8.13 74.33,8.97 76.81,10.71 78.30,13.35 78.80,16.89"/>
    </edge>
    <edge id=":J7_3" function="internal">
        <lane id=":J7_3_0" index="0" speed="3.24" length="3.20" shape="70.86,8.13 70.55,11.31"/>
    </edge>

    <edge id="-E1" from="J11" to="J2" priority="-1">
        <lane id="-E1_0" index="0" speed="13.89" length="36.49" shape="-70.51,80.63 -107.00,80.53"/>
    </edge>
    <edge id="-E1.43" from="J3" to="J11" priority="-1">
        <lane id="-E1.43_0" index="0" speed="13.89" length="37.66" shape="-23.91,88.04 -61.02,81.66"/>
    </edge>
    <edge id="-E2" from="J15" to="J3" priority="-1">
        <lane id="-E2_0" index="0" speed="13.89" length="20.36" shape="-14.11,59.68 -14.31,80.04"/>
    </edge>
    <edge id="-E2.26" from="J18" to="J15" priority="-1">
        <lane id="-E2.26_0" index="0" speed="13.89" length="11.14" shape="-14.00,37.35 -14.04,48.49"/>
    </edge>
    <edge id="-E2.45" from="J4" to="J18" priority="-1">
        <lane id="-E2.45_0" index="0" speed="13.89" length="13.85" shape="-15.25,12.03 -14.42,25.85"/>
    </edge>
    <edge id="-E3" from="J12" to="J4" priority="-1">
        <lane id="-E3_0" index="0" speed="13.89" length="35.09" shape="-59.59,10.69 -25.08,4.33"/>
    </edge>
    <edge id="-E3.50" from="J5" to="J12" priority="-1">
        <lane id="-E3.50_0" index="0" speed="13.89" length="35.03" shape="-103.24,12.01 -68.22,11.71"/>
    </edge>
    <edge id="-E3.500" from="J5" to="J12" priority="-1">
        <lane id="-E3.500_0" index="0" speed="13.89" length="35.03" shape="-103.24,12.01 -68.22,11.71"/>
    </edge>
    <edge id="-E30" from="J12" to="J4" priority="-1">
        <lane id="-E30_0" index="0" speed="13.89" length="35.09" shape="-59.59,10.69 -25.08,4.33"/>
    </edge>
    <edge id="-E4" from="J16" to="J5" priority="-1">
        <lane id="-E4_0" index="0" speed="13.89" length="4.49" shape="-111.95,25.33 -111.97,20.85"/>
    </edge>
    <edge id="-E4.18" from="J13" to="J16" priority="-1">
        <lane id="-E4.18_0" index="0" speed="13.89" length="12.61" shape="-112.02,48.73 -111.94,36.12"/>
    </edge>
    <edge id="-E4.36" from="J2" to="J13" priority="-1">
        <lane id="-E4.36_0" index="0" speed="13.89" length="15.77" shape="-111.79,75.80 -112.01,60.03"/>
    </edge>
    <edge id="-E5" from="J20" to="J3" priority="-1">
        <lane id="-E5_0" index="0" speed="13.89" length="6.29" shape="-2.07,88.10 -8.33,88.68"/>
    </edge>
    <edge id="-E5.20" from="J22" to="J20" priority="-1">
        <lane id="-E5.20_0" index="0" speed="13.89" length="6.67" shape="15.11,86.51 8.47,87.13"/>
    </edge>
    <edge id="-E5.37" from="J24" to="J22" priority="-1">
        <lane id="-E5.37_0" index="0" speed="13.89" length="4.65" shape="30.14,85.12 25.51,85.55"/>
    </edge>
    <edge id="-E5.52" from="J26" to="J24" priority="-1">
        <lane id="-E5.52_0" index="0" speed="13.89" length="5.12" shape="45.56,83.70 40.46,84.17"/>
    </edge>
    <edge id="-E5.67" from="J6" to="J26" priority="-1">
        <lane id="-E5.67_0" index="0" speed="13.89" length="18.40" shape="74.44,81.04 56.12,82.73"/>
    </edge>
    <edge id="-E6" from="J7" to="J6" priority="-1">
        <lane id="-E6_0" index="0" speed="13.89" length="59.37" shape="78.80,16.89 78.80,76.26"/>
    </edge>
    <edge id="-E7" from="J27" to="J7" priority="-1">
        <lane id="-E7_0" index="0" speed="13.89" length="15.74" shape="55.19,6.59 70.86,8.13"/>
    </edge>
    <edge id="-E7.26" from="J25" to="J27" priority="-1">
        <lane id="-E7.26_0" index="0" speed="13.89" length="2.86" shape="42.01,5.30 44.86,5.58"/>
    </edge>
    <edge id="-E7.260" from="J25" to="J27" priority="-1">
        <lane id="-E7.260_0" index="0" speed="13.89" length="2.86" shape="42.01,5.30 44.86,5.58"/>
    </edge>
    <edge id="-E7.39" from="J23" to="J25" priority="-1">
        <lane id="-E7.39_0" index="0" speed="13.89" length="5.28" shape="26.19,3.75 31.45,4.27"/>
    </edge>
    <edge id="-E7.390" from="J23" to="J25" priority="-1">