<?xml version="1.0" encoding="UTF-8"?>

<!-- generated on 2022-10-19 19:33:18.042072 by edgesInDistricts.py v1_14_1+0000-f654d7b963e
  options: -n network1_3.net.xml -t poly.xml
-->

<tazs xmlns:xsi="http://www.w3.org/2001/XMLSchema-instance" xsi:noNamespaceSchemaLocation="http://sumo.dlr.de/xsd/taz_file.xsd">
    <taz id="po_0" color="red" edges="-E1 -E1.43 -E4 -E4.18 -E4.36 E1 E1.43 E13 E13.20 E13.31 E14 E15 E16 E17 E2 E2.26 E2.45 E3 E3.50 E4 E4.18 E4.36"/>
    <taz id="po_1" color="green" edges="-E2 -E2.26 -E2.45 -E5 -E5.20 -E5.37 -E5.52 -E5.67 -E6 E20 E21 E22 E23 E5 E5.20 E5.37 E5.52 E5.67 E6 E7 E7.26 E7.39 E7.55 E7.74"/>
    <taz id="po_2" color="yellow" edges="-E10 -E10.16 -E10.33 -E18 -E18.18 -E18.37 -E19 -E19.124 -E19.155 -E19.46 -E19.93 -E25 -E25.14 -E25.140 -E25.141 -E25.31 -E25.310 -E25.311 -E3 -E3.50 -E3.500 -E30 -E7 -E7.26 -E7.260 -E7.39 -E7.390 -E7.55 -E7.550 -E7.74 -E7.740 -E70 E10 E10.16 E10.33 E18 E18.18 E18.37 E19 E19.124 E19.155 E19.46 E19.93 E24 E24.21 E24.40 E25 E25.14 E25.31 E26 E26.16 E26.34 E27 E27.20 E27.38 E28 E29 E30 E31 E32 E33 E34 E35 E36 E37"/>
</tazs>
