<?xml version="1.0" encoding="UTF-8"?>

<!-- generated on 2022-11-16 12:26:43.538339 by randomTrips.py v1_14_1+0000-f654d7b963e
<configuration>
    <begin value="0"/>
    <end value="100"/>
    <net-file value="network.net.xml"/>
    <period value="1.0"/>
    <random value="True"/>
    <route-file value="elem.rou.xml"/>
    <vehicle-class value="passenger"/>
</configuration>
-->

<!-- generated on 2022-11-16 12:26:43 by Eclipse SUMO duarouter Version 1.14.1
<configuration xmlns:xsi="http://www.w3.org/2001/XMLSchema-instance" xsi:noNamespaceSchemaLocation="http://sumo.dlr.de/xsd/duarouterConfiguration.xsd">

    <input>
        <net-file value="network.net.xml"/>
        <route-files value="trips.trips.xml"/>
    </input>

    <output>
        <output-file value="elem.rou.xml"/>
        <alternatives-output value="NUL"/>
    </output>

    <time>
        <begin value="0"/>
        <end value="100"/>
    </time>

    <report>
        <no-warnings value="true"/>
        <ignore-errors value="true"/>
        <no-step-log value="true"/>
    </report>

</configuration>
-->

<routes xmlns:xsi="http://www.w3.org/2001/XMLSchema-instance" xsi:noNamespaceSchemaLocation="http://sumo.dlr.de/xsd/routes_file.xsd">
    <vType id="passenger" vClass="passenger"/>
    <vehicle id="0" type="passenger" depart="0.00">
        <route edges="E5.52 E23 E7.26 E7.39 E7.55 E7.74 E25 E25.14 E25.31 -E19.46 -E19 -E18.37 -E18.18 -E18 -E3.50"/>
    </vehicle>
    <vehicle id="1" type="passenger" depart="1.00">
        <route edges="-E7.550 E7.55 E7.74 E3 E3.50 E4 E4.18"/>
    </vehicle>
    <vehicle id="2" type="passenger" depart="2.00">
        <route edges="E29 E30 E31 E32 E10.33"/>
    </vehicle>
    <vehicle id="3" type="passenger" depart="3.00">
        <route edges="E15 E2.26 E2.45 E3 E3.50 E4 E4.18 E4.36 E1"/>
    </vehicle>
    <vehicle id="4" type="passenger" depart="4.00">
        <route edges="E24 E24.21 E34 E35 E36 E37"/>
    </vehicle>
    <vehicle id="5" type="passenger" depart="5.00">
        <route edges="-E19.46 -E19 -E18.37 -E18.18 -E18 -E3.50 -E3 -E7.74 -E7.55 -E7.39 -E7.26 -E70 E7"/>
    </vehicle>
    <vehicle id="6" type="passenger" depart="6.00">
        <route edges="-E5 -E1.43 -E1 -E4.36 -E4.18 -E4 E18 E18.18 E33 E34 E35 E26.34 -E19.93"/>
    </vehicle>
    <vehicle id="7" type="passenger" depart="7.00">
        <route edges="-E70 E7 E7.26 E7.39 E7.55 E7.74 E3 E13 E17 E2.45"/>
    </vehicle>
    <vehicle id="8" type="passenger" depart="8.00">
        <route edges="E21 -E7.39 E27 E27.20 E27.38"/>
    </vehicle>
    <vehicle id="9" type="passenger" depart="9.00">
        <route edges="E3.50 E18 E18.18 E33 E24.40 -E19 -E18.37 -E18.18 -E18"/>
    </vehicle>
    <vehicle id="10" type="passenger" depart="10.00">
        <route edges="E3.50 -E3.500 -E3 -E7.74 -E7.55 -E7.39 E27 E27.20 E27.38 -E19.124"/>
    </vehicle>
    <vehicle id="11" type="passenger" depart="11.00">
        <route edges="E25 E25.14 -E25.140 -E25 E3 E13 E13.20 E13.31 E1.43 E2"/>
    </vehicle>
    <vehicle id="12" type="passenger" depart="12.00">
        <route edges="E35"/>
    </vehicle>
    <vehicle id="13" type="passenger" depart="13.00">
        <route edges="E4 E4.18 E4.36 E1 E1.43"/>
    </vehicle>
    <vehicle id="14" type="passenger" depart="14.00">
        <route edges="-E25.141 -E25 -E7.74 -E7.55 -E7.39 E27"/>
    </vehicle>
    <vehicle id="15" type="passenger" depart="15.00">
        <route edges="E2 E2.26 E2.45 E25 E25.14 E35 E26.34"/>
    </vehicle>
    <vehicle id="16" type="passenger" depart="16.00">
        <route edges="-E25 -E7.74 -E7.55 -E7.39 -E7.26 -E7 -E6 -E5.67 -E5.52 -E5.37"/>
    </vehicle>
    <vehicle id="17" type="passenger" depart="17.00">
        <route edges="-E2 E5 E20 E7.74 E25"/>
    </vehicle>
    <vehicle id="18" type="passenger" depart="18.00">
        <route edges="-E7.26 -E70 E7 E7.26 E7.39 E7.55 E7.74 E3 E3.50 -E3.500 -E3"/>
    </vehicle>
    <vehicle id="19" type="passenger" depart="19.00">
        <route edges="E13.20 E15 E2.26 E2.45 -E7.74 -E7.55 -E7.39 E27"/>
    </vehicle>
    <vehicle id="20" type="passenger" depart="20.00">
        <route edges="-E1 -E4.36 -E4.18 -E4 E18 E28 E29 E30 E31 E27.20"/>
    </vehicle>
    <vehicle id="21" type="passenger" depart="21.00">
        <route edges="-E7.74 -E7.550 E7.55 E7.74 E3 -E30"/>
    </vehicle>
    <vehicle id="22" type="passenger" depart="22.00">
        <route edges="E21 E7.55 E7.74 -E2.45 -E2.26 -E2"/>
    </vehicle>
    <vehicle id="23" type="passenger" depart="23.00">
        <route edges="-E7.550 E7.55 E7.74 E3 E24"/>
    </vehicle>
    <vehicle id="24" type="passenger" depart="24.00">
        <route edges="E28 E29 E30 E31 E32 E10.33 -E6 -E5.67 -E5.52 -E5.37 -E5.20"/>
    </vehicle>
    <vehicle id="25" type="passenger" depart="25.00">
        <route edges="E5.52 E23 E7.26 E27 E27.20"/>
    </vehicle>
    <vehicle id="26" type="passenger" depart="26.00">
        <route edges="-E7 -E10.33 -E10.16 -E10 -E19.155 -E19.124 -E19.93 -E25.31 E35 E36 E37"/>
    </vehicle>
    <vehicle id="27" type="passenger" depart="27.00">
        <route edges="-E7.550 -E7.39 -E7.26 -E7 -E10.33 -E10.16"/>
    </vehicle>
    <vehicle id="28" type="passenger" depart="28.00">
        <route edges="E7.39 E7.55 -E7.550"/>
    </vehicle>
    <vehicle id="29" type="passenger" depart="29.00">
        <route edges="E14 E13.31 -E1 -E4.36 -E4.18 -E4 E18 E18.18 E33 E34"/>
    </vehicle>
    <vehicle id="30" type="passenger" depart="30.00">
        <route edges="E18.18 E33 E24.40 -E19 -E18.37 -E18.18 E28 E29"/>
    </vehicle>
    <vehicle id="31" type="passenger" depart="31.00">
        <route edges="E3.50 -E3.500 -E3 -E7.74 -E7.55 -E7.39 -E7.26 -E7 -E6 -E5.67 -E5.52 -E5.37 -E5.20"/>
    </vehicle>
    <vehicle id="32" type="passenger" depart="32.00">
        <route edges="E25 E25.14 E35 E36 E27.38 -E19.124"/>
    </vehicle>
    <vehicle id="33" type="passenger" depart="33.00">
        <route edges="E35 E26.34 -E19.93 -E25.31 -E25.14 -E25 -E7.74 -E7.55 -E7.39"/>
    </vehicle>
    <vehicle id="34" type="passenger" depart="34.00">
        <route edges="E37 E10.16 E10.33 -E6"/>
    </vehicle>
    <vehicle id="35" type="passenger" depart="35.00">
        <route edges="E19 E19.46"/>
    </vehicle>
    <vehicle id="36" type="passenger" depart="36.00">
        <route edges="E25 E30 E31 E32 E10.33 -E6 -E5.67 -E5.52"/>
    </vehicle>
    <vehicle id="37" type="passenger" depart="37.00">
        <route edges="-E7.74 -E7.55 -E7.39 E27 E27.20 E27.38"/>
    </vehicle>
    <vehicle id="38" type="passenger" depart="38.00">
        <route edges="E29 -E25 -E2.45 -E2.26 -E2 E5 E20"/>
    </vehicle>
    <vehicle id="39" type="passenger" depart="39.00">
        <route edges="E19.155 E10 E10.16 E10.33 E7 E7.26 E7.39 E7.55 E7.74 E25 E25.14 E25.31 -E19.46"/>
    </vehicle>
    <vehicle id="40" type="passenger" depart="40.00">
        <route edges="-E18.18 -E18 E4 E4.18 E14"/>
    </vehicle>
    <vehicle id="41" type="passenger" depart="41.00">
        <route edges="-E5.67 E23 E7.26 E7.39 E7.55 E7.74 -E2.45 -E2.26"/>
    </vehicle>
    <vehicle id="42" type="passenger" depart="42.00">
        <route edges="-E25.141 -E25 E3 E3.50 E18 E18.18 E18.37"/>
    </vehicle>
    <vehicle id="43" type="passenger" depart="43.00">
        <route edges="-E7.74 -E7.55 -E7.39 -E7.26 -E7"/>
    </vehicle>
    <vehicle id="44" type="passenger" depart="44.00">
        <route edges="E28 E29 E30 E26.16 E36 E37"/>
    </vehicle>
    <vehicle id="45" type="passenger" depart="45.00">
        <route edges="E20 E26 E26.16 E26.34 E19.124"/>
    </vehicle>
    <vehicle id="46" type="passenger" depart="46.00">
        <route edges="E19.124 E19.155 E10 E10.16 E10.33 E7 E7.26 E7.39 E7.55 E7.74 E3 E3.50 E4 E4.18"/>
    </vehicle>
    <vehicle id="47" type="passenger" depart="47.00">
        <route edges="E34 E25.31 -E19.46 -E19 -E18.37 -E18.18 E28 E24.21"/>
    </vehicle>
    <vehicle id="48" type="passenger" depart="48.00">
        <route edges="E5.67 E6 E7 E7.26 E7.39 E7.55 E7.74 E3 E13 E13.20 E13.31 -E1"/>
    </vehicle>
    <vehicle id="49" type="passenger" depart="49.00">
        <route edges="-E19 -E18.37 -E18.18 -E18 -E3.50 -E3 E25"/>
    </vehicle>
    <vehicle id="50" type="passenger" depart="50.00">
        <route edges="E4.18 E14 E15 E2.26 E2.45 E3 E3.50"/>
    </vehicle>
    <vehicle id="51" type="passenger" depart="51.00">
        <route edges="-E5.67 E23 E7.26 E7.39 E7.55 E7.74 E25 E25.14 E25.31 -E25.310"/>
    </vehicle>
    <vehicle id="52" type="passenger" depart="52.00">
        <route edges="E18 E18.18 E33 E24.40 -E19 -E18.37 -E18.18 -E18"/>
    </vehicle>
    <vehicle id="53" type="passenger" depart="53.00">
        <route edges="-E25 -E7.74 -E7.55 -E7.390"/>
    </vehicle>
    <vehicle id="54" type="passenger" depart="54.00">
        <route edges="-E5.37 E21 E7.55 E7.74"/>
    </vehicle>
    <vehicle id="55" type="passenger" depart="55.00">
        <route edges="E36 E27.38 -E19.124 -E19.93 -E19.46 -E19 -E18.37 E33 E34"/>
    </vehicle>
    <vehicle id="56" type="passenger" depart="56.00">
        <route edges="-E5 -E1.43 -E1 -E4.36 -E4.18 -E4 E18 E18.18 E33 E24.40 -E19"/>
    </vehicle>
    <vehicle id="57" type="passenger" depart="57.00">
        <route edges="-E70 E7 E7.26 E7.39 E7.55 -E7.550 -E7.39"/>
    </vehicle>
    <vehicle id="58" type="passenger" depart="58.00">
        <route edges="-E7.74 -E7.550 E7.55 E7.74 E3 E24 E29"/>
    </vehicle>
    <vehicle id="59" type="passenger" depart="59.00">
        <route edges="-E10.33 -E10.16 -E10 -E19.155 -E19.124 -E19.93 -E25.31 -E25.140 E25.14"/>
    </vehicle>
    <vehicle id="60" type="passenger" depart="60.00">
        <route edges="E36 E27.38 -E19.124 -E19.93 -E19.46 -E19 -E18.37 -E18.18 -E18 E4 E4.18 E4.36 E1"/>
    </vehicle>
    <vehicle id="61" type="passenger" depart="61.00">
        <route edges="E7.26 E27 E27.20 E27.38"/>
    </vehicle>
    <vehicle id="62" type="passenger" depart="62.00">
        <route edges="E31 E32 E10.33 E7 E7.26 E27"/>
    </vehicle>
    <vehicle id="63" type="passenger" depart="63.00">
        <route edges="E19.93 E19.124 E19.155 E10 E10.16 E10.33 -E6 -E5.67 E23"/>
    </vehicle>
    <vehicle id="64" type="passenger" depart="64.00">
        <route edges="E24.40 E19.46 E19.93 E19.124 E19.155 E10 E10.16 E10.33 -E6 -E5.67 -E5.52 -E5.37 -E5.20 -E5"/>
    </vehicle>
    <vehicle id="65" type="passenger" depart="65.00">
        <route edges="-E7.39 -E7.260 E7.26 E7.39 E7.55 E7.74 E3 E3.50 E4 E4.18 E14"/>
    </vehicle>
    <vehicle id="66" type="passenger" depart="66.00">
        <route edges="E18.18 E33 E24.40 -E19 -E18.37 -E18.18 E28 E29"/>
    </vehicle>
    <vehicle id="67" type="passenger" depart="67.00">
        <route edges="-E7.55 -E7.39 E27 E27.20 E27.38 E19.155 E10"/>
    </vehicle>
    <vehicle id="68" type="passenger" depart="68.00">
        <route edges="-E3.500 E24 E29 -E25"/>
    </vehicle>
    <vehicle id="69" type="passenger" depart="69.00">
        <route edges="E5 E20 E26 E26.16 E26.34"/>
    </vehicle>
    <vehicle id="70" type="passenger" depart="70.00">
        <route edges="-E7.55 -E7.390 E7.39 E7.55 E7.74 E3 E3.50 E4 E4.18"/>
    </vehicle>
    <vehicle id="71" type="passenger" depart="71.00">
        <route edges="-E25.14 E30 E26.16 E36"/>
    </vehicle>
    <vehicle id="72" type="passenger" depart="72.00">
        <route edges="E24.40 -E19 -E18.37 -E18.18 -E18 E4 E4.18 E14"/>
    </vehicle>
    <vehicle id="73" type="passenger" depart="73.00">
        <route edges="E5 E5.20 E5.37 E22 E27 E27.20 E37"/>
    </vehicle>
    <vehicle id="74" type="passenger" depart="74.00">
        <route edges="E16 E13.20"/>
    </vehicle>
    <vehicle id="75" type="passenger" depart="75.00">
        <route edges="E10.16 E10.33 E7 E7.26 E7.39 E7.55 E26 E26.16 E36"/>
    </vehicle>
    <vehicle id="76" type="passenger" depart="76.00">
        <route edges="-E18.18 -E18 E4"/>
    </vehicle>
    <vehicle id="77" type="passenger" depart="77.00">
        <route edges="E27 E32 E10.33"/>
    </vehicle>
    <vehicle id="78" type="passenger" depart="78.00">
        <route edges="-E25 E3"/>
    </vehicle>
    <vehicle id="79" type="passenger" depart="79.00">
        <route edges="-E18.18 E28 E24.21 E24.40 -E19 -E18.37"/>
    </vehicle>
    <vehicle id="80" type="passenger" depart="80.00">
        <route edges="E2.26 E2.45 E25 E25.14 E25.31 E19.93"/>
    </vehicle>
    <vehicle id="81" type="passenger" depart="81.00">
        <route edges="E14 E15 E2.26 E2.45 E25 E25.14 E35 E36 E37 -E10 -E19.155"/>
    </vehicle>
    <vehicle id="82" type="passenger" depart="82.00">
        <route edges="E26 E26.16 E26.34 -E19.93 -E25.31 E35"/>
    </vehicle>
    <vehicle id="83" type="passenger" depart="83.00">
        <route edges="E27.20 E37"/>
    </vehicle>
    <vehicle id="84" type="passenger" depart="84.00">
        <route edges="-E25.311 E35 E36"/>
    </vehicle>
    <vehicle id="85" type="passenger" depart="85.00">
        <route edges="E19.155 E10 E10.16 E10.33 -E6 -E5.67"/>
    </vehicle>
    <vehicle id="86" type="passenger" depart="86.00">
        <route edges="-E19 -E18.37 -E18.18 -E18 -E3.50 -E3 -E7.74 -E7.55 -E7.39 -E7.26 -E7 -E6 -E5.67 -E5.52 -E5.37 -E5.20 -E5"/>
    </vehicle>
    <vehicle id="87" type="passenger" depart="87.00">
        <route edges="E25.14 -E25.140 -E25 -E2.45 -E2.26 -E2"/>
    </vehicle>
    <vehicle id="88" type="passenger" depart="88.00">
        <route edges="E30 E26.16 E26.34 -E19.93 -E25.31 -E25.14 -E25 -E7.74 -E7.55 -E7.39 -E7.260"/>
    </vehicle>
    <vehicle id="89" type="passenger" depart="89.00">
        <route edges="E10.33 E7 E7.26 E7.39 E7.55 E7.74 E25 E25.14 E25.31 E19.93 E19.124"/>
    </vehicle>
    <vehicle id="90" type="passenger" depart="90.00">
        <route edges="E5.20 E21 E7.55 E7.74 E3 E3.50 E18"/>
    </vehicle>
    <vehicle id="91" type="passenger" depart="91.00">
        <route edges="E27 E27.20 E27.38 -E19.124 -E19.93 -E25.31 -E25.14 -E25 E3 -E30"/>
    </vehicle>
    <vehicle id="92" type="passenger" depart="92.00">
        <route edges="E4 E16 E17 E2.45 -E7.740 E7.74"/>
    </vehicle>
    <vehicle id="93" type="passenger" depart="93.00">
        <route edges="E7.39 E7.55 E7.74 -E2.45 -E2.26 -E2"/>
    </vehicle>
    <vehicle id="94" type="passenger" depart="94.00">
        <route edges="E5.37 E22 E7.39 E7.55 E7.74 E25 E25.14 E25.31 -E19.46 -E19 -E18.37"/>
    </vehicle>
    <vehicle id="95" type="passenger" depart="95.00">
        <route edges="-E70 -E10.33 -E10.16 -E10 -E19.155 -E19.124 -E19.93 -E19.46 -E19 -E18.37 E33"/>
    </vehicle>
    <vehicle id="96" type="passenger" depart="96.00">
        <route edges="E7.74"/>
    </vehicle>
    <vehicle id="97" type="passenger" depart="97.00">
        <route edges="-E25.311 -E25.14 -E25 E3 E24 E24.21"/>
    </vehicle>
    <vehicle id="98" type="passenger" depart="98.00">
        <route edges="-E7.39 -E7.260 E7.26 E7.39 E7.55 E7.74 E3"/>
    </vehicle>
    <vehicle id="99" type="passenger" depart="99.00">
        <route edges="-E3.50 -E30 E3 E3.50 E4 E4.18 E4.36"/>
    </vehicle>
</routes>
