<?xml version="1.0" encoding="UTF-8"?>

<!-- generated on 2022-10-17 18:24:36 by Eclipse SUMO netedit Version 1.14.1
<configuration xmlns:xsi="http://www.w3.org/2001/XMLSchema-instance" xsi:noNamespaceSchemaLocation="http://sumo.dlr.de/xsd/netconvertConfiguration.xsd">

    <input>
        <sumo-net-file value="C:\Users\Giuseppe\Desktop\Sumo%20Tutorials\Strategia%201\network1_3.net.xml"/>
    </input>

    <output>
        <output-file value="C:\Users\Giuseppe\Desktop\Sumo%20Tutorials\Strategia%201\network1_3.net.xml"/>
    </output>

    <processing>
        <geometry.min-radius.fix.railways value="false"/>
        <geometry.max-grade.fix value="false"/>
        <offset.disable-normalization value="true"/>
        <lefthand value="false"/>
    </processing>

    <junctions>
        <no-turnarounds value="true"/>
        <junctions.corner-detail value="5"/>
        <junctions.limit-turn-speed value="5.5"/>
        <rectangular-lane-cut value="false"/>
    </junctions>

    <pedestrian>
        <walkingareas value="false"/>
    </pedestrian>

</configuration>
-->

<net version="1.9" junctionCornerDetail="5" limitTurnSpeed="5.50" xmlns:xsi="http://www.w3.org/2001/XMLSchema-instance" xsi:noNamespaceSchemaLocation="http://sumo.dlr.de/xsd/net_file.xsd">

    <location netOffset="0.00,0.00" convBoundary="-111.06,-47.85,88.21,87.78" origBoundary="-10000000000.00,-10000000000.00,10000000000.00,10000000000.00" projParameter="!"/>

    <edge id=":J11_0" function="internal">
        <lane id=":J11_0_0" index="0" speed="13.89" length="9.56" shape="-61.02,81.66 -63.82,81.16 -65.74,80.85 -67.68,80.68 -70.51,80.63"/>
    </edge>
    <edge id=":J11_1" function="internal">
        <lane id=":J11_1_0" index="0" speed="6.68" length="8.44" shape="-65.13,72.44 -64.86,74.79 -64.00,76.58 -62.54,77.82 -60.48,78.51"/>
    </edge>
    <edge id=":J11_2" function="internal">
        <lane id=":J11_2_0" index="0" speed="7.14" length="11.00" shape="-65.13,72.44 -65.51,76.03 -66.53,78.59 -68.20,80.12 -70.51,80.63"/>
    </edge>
    <edge id=":J11_3" function="internal">
        <lane id=":J11_3_0" index="0" speed="13.89" length="10.10" shape="-70.50,77.43 -67.52,77.48 -65.47,77.66 -63.42,77.98 -60.48,78.51"/>
    </edge>
    <edge id=":J12_0" function="internal">
        <lane id=":J12_0_0" index="0" speed="7.56" length="9.63" shape="-58.34,13.35 -60.53,14.25 -62.15,15.74 -63.20,17.83 -63.68,20.50"/>
    </edge>
    <edge id=":J12_1" function="internal">
        <lane id=":J12_1_0" index="0" speed="13.89" length="13.65" shape="-58.34,13.35 -61.80,14.09 -65.04,14.57 -68.32,14.84 -71.86,14.94"/>
    </edge>
    <edge id=":J12_2" function="internal">
        <lane id=":J12_2_0" index="0" speed="7.14" length="3.76" shape="-58.34,13.35 -61.87,13.63 -62.06,13.55"/>
    </edge>
    <edge id=":J12_3" function="internal">
        <lane id=":J12_3_0" index="0" speed="3.24" length="1.62" shape="-58.34,13.35 -58.72,11.78"/>
    </edge>
    <edge id=":J12_13" function="internal">
        <lane id=":J12_13_0" index="0" speed="7.14" length="9.44" shape="-62.06,13.55 -64.38,12.51 -65.87,9.98 -66.33,6.04"/>
    </edge>
    <edge id=":J12_14" function="internal">
        <lane id=":J12_14_0" index="0" speed="3.24" length="1.58" shape="-58.72,11.78 -59.09,10.24"/>
    </edge>
    <edge id=":J12_4" function="internal">
        <lane id=":J12_4_0" index="0" speed="6.55" length="9.04" shape="-71.89,11.74 -69.48,11.37 -67.75,10.29 -66.70,8.51 -66.33,6.04"/>
    </edge>
    <edge id=":J12_5" function="internal">
        <lane id=":J12_5_0" index="0" speed="13.89" length="12.92" shape="-71.89,11.74 -68.46,11.65 -65.44,11.42 -62.44,10.97 -59.09,10.24"/>
    </edge>
    <edge id=":J12_6" function="internal">
        <lane id=":J12_6_0" index="0" speed="13.89" length="12.92" shape="-71.89,11.74 -68.46,11.65 -65.44,11.42 -62.44,10.97 -59.09,10.24"/>
    </edge>
    <edge id=":J12_7" function="internal">
        <lane id=":J12_7_0" index="0" speed="7.73" length="3.84" shape="-71.89,11.74 -68.08,12.26"/>
    </edge>
    <edge id=":J12_15" function="internal">
        <lane id=":J12_15_0" index="0" speed="7.73" length="10.09" shape="-68.08,12.26 -65.44,13.89 -63.98,16.64 -63.68,20.50"/>
    </edge>
    <edge id=":J12_8" function="internal">
        <lane id=":J12_8_0" index="0" speed="6.55" length="9.04" shape="-71.89,11.74 -69.48,11.37 -67.75,10.29 -66.70,8.51 -66.33,6.04"/>
    </edge>
    <edge id=":J12_9" function="internal">
        <lane id=":J12_9_0" index="0" speed="13.89" length="12.92" shape="-71.89,11.74 -68.46,11.65 -65.44,11.42 -62.44,10.97 -59.09,10.24"/>
    </edge>
    <edge id=":J12_10" function="internal">
        <lane id=":J12_10_0" index="0" speed="13.89" length="12.92" shape="-71.89,11.74 -68.46,11.65 -65.44,11.42 -62.44,10.97 -59.09,10.24"/>
    </edge>
    <edge id=":J12_11" function="internal">
        <lane id=":J12_11_0" index="0" speed="7.73" length="13.93" shape="-71.89,11.74 -68.08,12.26 -65.44,13.89 -63.98,16.64 -63.68,20.50"/>
    </edge>
    <edge id=":J12_12" function="internal">
        <lane id=":J12_12_0" index="0" speed="3.24" length="3.20" shape="-71.89,11.74 -71.86,14.94"/>
    </edge>
    <edge id=":J13_0" function="internal">
        <lane id=":J13_0_0" index="0" speed="13.89" length="11.30" shape="-112.01,60.03 -112.02,48.73"/>
    </edge>
    <edge id=":J13_1" function="internal">
        <lane id=":J13_1_0" index="0" speed="7.32" length="2.64" shape="-112.01,60.03 -111.49,57.56 -111.41,57.47"/>
    </edge>
    <edge id=":J13_4" function="internal">
        <lane id=":J13_4_0" index="0" speed="7.32" length="9.13" shape="-111.41,57.47 -109.86,55.79 -107.11,54.71 -103.24,54.33"/>
    </edge>
    <edge id=":J13_2" function="internal">
        <lane id=":J13_2_0" index="0" speed="6.48" length="9.03" shape="-108.82,48.75 -108.49,51.21 -107.45,52.96 -105.70,54.00 -103.24,54.33"/>
    </edge>
    <edge id=":J13_3" function="internal">
        <lane id=":J13_3_0" index="0" speed="13.89" length="11.23" shape="-108.82,48.75 -108.81,59.98"/>
    </edge>
    <edge id=":J14_0" function="internal">
        <lane id=":J14_0_0" index="0" speed="6.47" length="9.03" shape="-64.79,48.47 -64.47,50.93 -63.44,52.69 -61.70,53.74 -59.24,54.09"/>
    </edge>
    <edge id=":J14_1" function="internal">
        <lane id=":J14_1_0" index="0" speed="13.89" length="11.25" shape="-64.79,48.47 -64.95,59.72"/>
    </edge>
    <edge id=":J14_2" function="internal">
        <lane id=":J14_2_0" index="0" speed="13.89" length="11.26" shape="-70.50,54.13 -59.24,54.09"/>
    </edge>
    <edge id=":J14_3" function="internal">
        <lane id=":J14_3_0" index="0" speed="6.46" length="4.14" shape="-70.50,54.13 -68.04,54.46 -66.62,55.31"/>
    </edge>
    <edge id=":J14_4" function="internal">
        <lane id=":J14_4_0" index="0" speed="6.46" length="4.89" shape="-66.62,55.31 -66.30,55.51 -65.26,57.26 -64.95,59.72"/>
    </edge>
    <edge id=":J15_0" function="internal">
        <lane id=":J15_0_0" index="0" speed="13.89" length="11.19" shape="-14.04,48.49 -14.11,59.68"/>
    </edge>
    <edge id=":J15_1" function="internal">
        <lane id=":J15_1_0" index="0" speed="6.51" length="9.01" shape="-22.85,54.06 -20.41,53.71 -18.66,52.66 -17.60,50.92 -17.24,48.48"/>
    </edge>
    <edge id=":J15_2" function="internal">
        <lane id=":J15_2_0" index="0" speed="7.29" length="11.71" shape="-22.85,54.06 -19.01,54.41 -16.27,55.46 -14.64,57.22 -14.11,59.68"/>
    </edge>
    <edge id=":J15_3" function="internal">
        <lane id=":J15_3_0" index="0" speed="13.89" length="11.17" shape="-17.31,59.65 -17.24,48.48"/>
    </edge>
    <edge id=":J16_0" function="internal">
        <lane id=":J16_0_0" index="0" speed="6.55" length="8.85" shape="-108.75,25.32 -108.40,27.67 -107.36,29.39 -105.64,30.46 -103.24,30.90"/>
    </edge>
    <edge id=":J16_1" function="internal">
        <lane id=":J16_1_0" index="0" speed="13.89" length="10.82" shape="-108.75,25.32 -108.74,36.14"/>
    </edge>
    <edge id=":J16_2" function="internal">
        <lane id=":J16_2_0" index="0" speed="13.89" length="10.79" shape="-111.94,36.12 -111.95,25.33"/>
    </edge>
    <edge id=":J16_3" function="internal">
        <lane id=":J16_3_0" index="0" speed="7.17" length="2.49" shape="-111.94,36.12 -111.39,33.70"/>
    </edge>
    <edge id=":J16_4" function="internal">
        <lane id=":J16_4_0" index="0" speed="7.17" length="9.02" shape="-111.39,33.70 -109.75,32.02 -107.03,31.09 -103.24,30.90"/>
    </edge>
    <edge id=":J17_0" function="internal">
        <lane id=":J17_0_0" index="0" speed="6.34" length="9.04" shape="-64.09,26.71 -63.90,29.21 -62.94,30.98 -61.22,32.03 -58.73,32.35"/>
    </edge>
    <edge id=":J17_1" function="internal">
        <lane id=":J17_1_0" index="0" speed="13.89" length="11.39" shape="-64.09,26.71 -64.64,38.08"/>
    </edge>
    <edge id=":J17_2" function="internal">
        <lane id=":J17_2_0" index="0" speed="13.89" length="11.37" shape="-70.11,32.29 -58.73,32.35"/>
    </edge>
    <edge id=":J17_3" function="internal">
        <lane id=":J17_3_0" index="0" speed="6.57" length="4.27" shape="-70.11,32.29 -67.69,32.74 -66.17,33.72"/>
    </edge>
    <edge id=":J17_4" function="internal">
        <lane id=":J17_4_0" index="0" speed="6.57" length="4.76" shape="-66.17,33.72 -65.97,33.86 -64.95,35.64 -64.64,38.08"/>
    </edge>
    <edge id=":J18_0" function="internal">
        <lane id=":J18_0_0" index="0" speed="13.89" length="11.02" shape="-13.94,26.24 -14.00,37.26"/>
    </edge>
    <edge id=":J18_1" function="internal">
        <lane id=":J18_1_0" index="0" speed="6.53" length="8.95" shape="-22.72,31.79 -20.29,31.41 -18.55,30.36 -17.50,28.63 -17.14,26.22"/>
    </edge>
    <edge id=":J18_2" function="internal">
        <lane id=":J18_2_0" index="0" speed="7.25" length="11.63" shape="-22.72,31.79 -18.89,32.08 -16.17,33.09 -14.53,34.82 -14.00,37.26"/>
    </edge>
    <edge id=":J18_3" function="internal">
        <lane id=":J18_3_0" index="0" speed="13.89" length="11.03" shape="-17.20,37.25 -17.14,26.22"/>
    </edge>
    <edge id=":J19_0" function="internal">
        <lane id=":J19_0_0" index="0" speed="6.08" length="7.68" shape="-112.62,-40.42 -112.35,-42.50 -111.48,-44.00 -110.00,-44.93 -107.93,-45.27"/>
    </edge>
    <edge id=":J19_1" function="internal">
        <lane id=":J19_1_0" index="0" speed="3.90" length="2.56" shape="-107.86,-42.07 -108.55,-41.96 -109.04,-41.65 -109.33,-41.15 -109.42,-40.45"/>
    </edge>
    <edge id=":J2_0" function="internal">
        <lane id=":J2_0_0" index="0" speed="6.08" length="7.65" shape="-107.00,80.53 -109.07,80.23 -110.55,79.34 -111.46,77.86 -111.79,75.80"/>
    </edge>
    <edge id=":J2_1" function="internal">
        <lane id=":J2_1_0" index="0" speed="3.91" length="2.55" shape="-108.59,75.75 -108.48,76.44 -108.18,76.93 -107.68,77.23 -106.99,77.33"/>
    </edge>
    <edge id=":J20_0" function="internal">
        <lane id=":J20_0_0" index="0" speed="13.89" length="10.58" shape="8.47,87.13 -2.07,88.10"/>
    </edge>
    <edge id=":J20_1" function="internal">
        <lane id=":J20_1_0" index="0" speed="7.03" length="2.50" shape="8.47,87.13 5.99,86.82"/>
    </edge>
    <edge id=":J20_4" function="internal">
        <lane id=":J20_4_0" index="0" speed="7.03" length="8.89" shape="5.99,86.82 4.20,85.36 3.11,82.76 2.72,79.02"/>
    </edge>
    <edge id=":J20_2" function="internal">
        <lane id=":J20_2_0" index="0" speed="6.60" length="8.72" shape="-2.36,84.92 -0.12,84.37 1.48,83.21 2.42,81.42 2.72,79.02"/>
    </edge>
    <edge id=":J20_3" function="internal">
        <lane id=":J20_3_0" index="0" speed="13.89" length="10.58" shape="-2.36,84.92 8.17,83.94"/>
    </edge>
    <edge id=":J21_0" function="internal">
        <lane id=":J21_0_0" index="0" speed="6.63" length="8.63" shape="2.02,9.96 1.68,7.58 0.73,5.81 -0.85,4.65 -3.04,4.10"/>
    </edge>
    <edge id=":J21_1" function="internal">
        <lane id=":J21_1_0" index="0" speed="13.89" length="13.95" shape="2.02,9.96 2.08,6.38 2.34,3.00 2.83,-0.35 3.57,-3.86"/>
    </edge>
    <edge id=":J21_2" function="internal">
        <lane id=":J21_2_0" index="0" speed="6.96" length="11.36" shape="2.02,9.96 2.34,6.24 3.40,3.66 5.19,2.23 7.71,1.94"/>
    </edge>
    <edge id=":J21_3" function="internal">
        <lane id=":J21_3_0" index="0" speed="6.96" length="11.36" shape="2.02,9.96 2.34,6.24 3.40,3.66 5.19,2.23 7.71,1.94"/>
    </edge>
    <edge id=":J21_4" function="internal">
        <lane id=":J21_4_0" index="0" speed="13.89" length="10.49" shape="7.40,5.13 -3.04,4.10"/>
    </edge>
    <edge id=":J21_5" function="internal">
        <lane id=":J21_5_0" index="0" speed="6.90" length="2.55" shape="7.40,5.13 4.98,4.35"/>
    </edge>
    <edge id=":J21_6" function="internal">
        <lane id=":J21_6_0" index="0" speed="3.24" length="1.60" shape="7.40,5.13 7.56,3.53"/>
    </edge>
    <edge id=":J21_14" function="internal">
        <lane id=":J21_14_0" index="0" speed="6.90" length="8.81" shape="4.98,4.35 3.53,2.59 3.06,-0.15 3.57,-3.86"/>
    </edge>
    <edge id=":J21_15" function="internal">
        <lane id=":J21_15_0" index="0" speed="3.24" length="1.60" shape="7.56,3.53 7.71,1.94"/>
    </edge>
    <edge id=":J21_7" function="internal">
        <lane id=":J21_7_0" index="0" speed="6.75" length="8.77" shape="-2.72,0.92 -0.44,0.80 1.37,-0.03 2.71,-1.59 3.57,-3.86"/>
    </edge>
    <edge id=":J21_8" function="internal">
        <lane id=":J21_8_0" index="0" speed="13.89" length="10.49" shape="-2.72,0.92 7.71,1.94"/>
    </edge>
    <edge id=":J21_9" function="internal">
        <lane id=":J21_9_0" index="0" speed="13.89" length="10.49" shape="-2.72,0.92 7.71,1.94"/>
    </edge>
    <edge id=":J21_10" function="internal">
        <lane id=":J21_10_0" index="0" speed="6.75" length="8.77" shape="-2.72,0.92 -0.44,0.80 1.37,-0.03 2.71,-1.59 3.57,-3.86"/>
    </edge>
    <edge id=":J21_11" function="internal">
        <lane id=":J21_11_0" index="0" speed="13.89" length="10.49" shape="-2.72,0.92 7.71,1.94"/>
    </edge>
    <edge id=":J21_12" function="internal">
        <lane id=":J21_12_0" index="0" speed="13.89" length="10.49" shape="-2.72,0.92 7.71,1.94"/>
    </edge>
    <edge id=":J21_13" function="internal">
        <lane id=":J21_13_0" index="0" speed="3.24" length="3.20" shape="-2.72,0.92 -3.04,4.10"/>
    </edge>
    <edge id=":J22_0" function="internal">
        <lane id=":J22_0_0" index="0" speed="13.89" length="10.45" shape="25.51,85.55 15.11,86.51"/>
    </edge>
    <edge id=":J22_1" function="internal">
        <lane id=":J22_1_0" index="0" speed="6.97" length="2.50" shape="25.51,85.55 23.03,85.24"/>
    </edge>
    <edge id=":J22_4" function="internal">
        <lane id=":J22_4_0" index="0" speed="6.97" length="8.82" shape="23.03,85.24 21.26,83.79 20.22,81.20 19.90,77.47"/>
    </edge>
    <edge id=":J22_2" function="internal">
        <lane id=":J22_2_0" index="0" speed="6.62" length="8.66" shape="14.81,83.33 17.02,82.79 18.60,81.63 19.56,79.86 19.90,77.47"/>
    </edge>
    <edge id=":J22_3" function="internal">
        <lane id=":J22_3_0" index="0" speed="13.89" length="10.45" shape="14.81,83.33 25.21,82.37"/>
    </edge>
    <edge id=":J23_0" function="internal">
        <lane id=":J23_0_0" index="0" speed="13.89" length="10.53" shape="25.88,6.94 15.40,5.91"/>
    </edge>
    <edge id=":J23_1" function="internal">
        <lane id=":J23_1_0" index="0" speed="3.24" length="1.60" shape="25.88,6.94 26.04,5.34"/>
    </edge>
    <edge id=":J23_10" function="internal">
        <lane id=":J23_10_0" index="0" speed="3.24" length="1.60" shape="26.04,5.34 26.19,3.75"/>
    </edge>
    <edge id=":J23_2" function="internal">
        <lane id=":J23_2_0" index="0" speed="13.89" length="10.53" shape="15.71,2.73 26.19,3.75"/>
    </edge>
    <edge id=":J23_3" function="internal">
        <lane id=":J23_3_0" index="0" speed="13.89" length="10.53" shape="15.71,2.73 26.19,3.75"/>
    </edge>
    <edge id=":J23_4" function="internal">
        <lane id=":J23_4_0" index="0" speed="13.89" length="10.53" shape="15.71,2.73 26.19,3.75"/>
    </edge>
    <edge id=":J23_5" function="internal">
        <lane id=":J23_5_0" index="0" speed="13.89" length="10.53" shape="15.71,2.73 26.19,3.75"/>
    </edge>
    <edge id=":J23_6" function="internal">
        <lane id=":J23_6_0" index="0" speed="3.24" length="3.20" shape="15.71,2.73 15.40,5.91"/>
    </edge>
    <edge id=":J23_7" function="internal">
        <lane id=":J23_7_0" index="0" speed="6.60" length="8.70" shape="20.45,11.82 20.15,9.42 19.21,7.64 17.63,6.47 15.40,5.91"/>
    </edge>
    <edge id=":J23_8" function="internal">
        <lane id=":J23_8_0" index="0" speed="7.01" length="11.36" shape="20.45,11.82 20.84,8.08 21.92,5.49 23.71,4.05 26.19,3.75"/>
    </edge>
    <edge id=":J23_9" function="internal">
        <lane id=":J23_9_0" index="0" speed="7.01" length="11.36" shape="20.45,11.82 20.84,8.08 21.92,5.49 23.71,4.05 26.19,3.75"/>
    </edge>
    <edge id=":J24_0" function="internal">
        <lane id=":J24_0_0" index="0" speed="13.89" length="10.37" shape="40.46,84.17 30.14,85.12"/>
    </edge>
    <edge id=":J24_1" function="internal">
        <lane id=":J24_1_0" index="0" speed="6.93" length="2.50" shape="40.46,84.17 37.98,83.87"/>
    </edge>
    <edge id=":J24_4" function="internal">
        <lane id=":J24_4_0" index="0" speed="6.93" length="8.78" shape="37.98,83.87 36.23,82.42 35.22,79.84 34.94,76.11"/>
    </edge>
    <edge id=":J24_2" function="internal">
        <lane id=":J24_2_0" index="0" speed="6.63" length="8.62" shape="29.84,81.94 32.03,81.40 33.61,80.25 34.58,78.49 34.94,76.11"/>
    </edge>
    <edge id=":J24_3" function="internal">
        <lane id=":J24_3_0" index="0" speed="13.89" length="10.37" shape="29.84,81.94 40.17,80.99"/>
    </edge>
    <edge id=":J25_0" function="internal">
        <lane id=":J25_0_0" index="0" speed="13.89" length="10.68" shape="41.72,8.49 31.09,7.45"/>
    </edge>
    <edge id=":J25_1" function="internal">
        <lane id=":J25_1_0" index="0" speed="7.07" length="2.51" shape="41.72,8.49 39.33,7.71"/>
    </edge>
    <edge id=":J25_2" function="internal">
        <lane id=":J25_2_0" index="0" speed="3.24" length="1.60" shape="41.72,8.49 41.87,6.90"/>
    </edge>
    <edge id=":J25_14" function="internal">
        <lane id=":J25_14_0" index="0" speed="7.07" length="8.93" shape="39.33,7.71 37.83,5.94 37.23,3.17 37.51,-0.59"/>
    </edge>
    <edge id=":J25_15" function="internal">
        <lane id=":J25_15_0" index="0" speed="3.24" length="1.60" shape="41.87,6.90 42.03,5.30"/>
    </edge>
    <edge id=":J25_3" function="internal">
        <lane id=":J25_3_0" index="0" speed="6.58" length="8.76" shape="31.41,4.26 33.73,4.15 35.53,3.30 36.79,1.72 37.51,-0.59"/>
    </edge>
    <edge id=":J25_4" function="internal">
        <lane id=":J25_4_0" index="0" speed="13.89" length="10.67" shape="31.41,4.26 42.03,5.30"/>
    </edge>
    <edge id=":J25_5" function="internal">
        <lane id=":J25_5_0" index="0" speed="13.89" length="10.67" shape="31.41,4.26 42.03,5.30"/>
    </edge>
    <edge id=":J25_6" function="internal">
        <lane id=":J25_6_0" index="0" speed="6.58" length="8.76" shape="31.41,4.26 33.73,4.15 35.53,3.30 36.79,1.72 37.51,-0.59"/>
    </edge>
    <edge id=":J25_7" function="internal">
        <lane id=":J25_7_0" index="0" speed="13.89" length="10.67" shape="31.41,4.26 42.03,5.30"/>
    </edge>
    <edge id=":J25_8" function="internal">
        <lane id=":J25_8_0" index="0" speed="13.89" length="10.67" shape="31.41,4.26 42.03,5.30"/>
    </edge>
    <edge id=":J25_9" function="internal">
        <lane id=":J25_9_0" index="0" speed="3.24" length="3.20" shape="31.41,4.26 31.09,7.45"/>
    </edge>
    <edge id=":J25_10" function="internal">
        <lane id=":J25_10_0" index="0" speed="6.61" length="8.79" shape="36.18,13.41 35.91,10.99 34.96,9.19 33.36,8.01 31.09,7.45"/>
    </edge>
    <edge id=":J25_11" function="internal">
        <lane id=":J25_11_0" index="0" speed="13.89" length="14.08" shape="36.18,13.41 36.31,9.81 36.57,6.38 36.96,2.97 37.51,-0.59"/>
    </edge>
    <edge id=":J25_12" function="internal">
        <lane id=":J25_12_0" index="0" speed="7.06" length="11.44" shape="36.18,13.41 36.61,9.66 37.73,7.05 39.54,5.60 42.03,5.30"/>
    </edge>
    <edge id=":J25_13" function="internal">
        <lane id=":J25_13_0" index="0" speed="7.06" length="11.44" shape="36.18,13.41 36.61,9.66 37.73,7.05 39.54,5.60 42.03,5.30"/>
    </edge>
    <edge id=":J26_0" function="internal">
        <lane id=":J26_0_0" index="0" speed="13.89" length="10.60" shape="56.12,82.73 45.56,83.70"/>
    </edge>
    <edge id=":J26_1" function="internal">
        <lane id=":J26_1_0" index="0" speed="7.04" length="2.50" shape="56.12,82.73 53.64,82.42"/>
    </edge>
    <edge id=":J26_4" function="internal">
        <lane id=":J26_4_0" index="0" speed="7.04" length="8.90" shape="53.64,82.42 51.85,80.96 50.75,78.36 50.35,74.62"/>
    </edge>
    <edge id=":J26_2" function="internal">
        <lane id=":J26_2_0" index="0" speed="6.59" length="8.73" shape="45.27,80.52 47.52,79.97 49.12,78.80 50.06,77.02 50.35,74.62"/>
    </edge>
    <edge id=":J26_3" function="internal">
        <lane id=":J26_3_0" index="0" speed="13.89" length="10.60" shape="45.27,80.52 55.83,79.54"/>
    </edge>
    <edge id=":J27_0" function="internal">
        <lane id=":J27_0_0" index="0" speed="6.63" length="8.63" shape="49.61,14.62 49.26,12.24 48.31,10.47 46.73,9.31 44.55,8.77"/>
    </edge>
    <edge id=":J27_1" function="internal">
        <lane id=":J27_1_0" index="0" speed="6.94" length="11.29" shape="49.61,14.62 49.91,10.90 50.95,8.32 52.71,6.88 55.19,6.59"/>
    </edge>
    <edge id=":J27_2" function="internal">
        <lane id=":J27_2_0" index="0" speed="6.94" length="11.29" shape="49.61,14.62 49.91,10.90 50.95,8.32 52.71,6.88 55.19,6.59"/>
    </edge>
    <edge id=":J27_3" function="internal">
        <lane id=":J27_3_0" index="0" speed="13.89" length="10.39" shape="54.88,9.78 44.55,8.77"/>
    </edge>
    <edge id=":J27_4" function="internal">
        <lane id=":J27_4_0" index="0" speed="3.24" length="1.60" shape="54.88,9.78 55.04,8.18"/>
    </edge>
    <edge id=":J27_10" function="internal">
        <lane id=":J27_10_0" index="0" speed="3.24" length="1.60" shape="55.04,8.18 55.19,6.59"/>
    </edge>
    <edge id=":J27_5" function="internal">
        <lane id=":J27_5_0" index="0" speed="13.89" length="10.39" shape="44.86,5.58 55.19,6.59"/>
    </edge>
    <edge id=":J27_6" function="internal">
        <lane id=":J27_6_0" index="0" speed="13.89" length="10.39" shape="44.86,5.58 55.19,6.59"/>
    </edge>
    <edge id=":J27_7" function="internal">
        <lane id=":J27_7_0" index="0" speed="13.89" length="10.39" shape="44.86,5.58 55.19,6.59"/>
    </edge>
    <edge id=":J27_8" function="internal">
        <lane id=":J27_8_0" index="0" speed="13.89" length="10.39" shape="44.86,5.58 55.19,6.59"/>
    </edge>
    <edge id=":J27_9" function="internal">
        <lane id=":J27_9_0" index="0" speed="3.24" length="3.20" shape="44.86,5.58 44.55,8.77"/>
    </edge>
    <edge id=":J28_0" function="internal">
        <lane id=":J28_0_0" index="0" speed="13.89" length="11.20" shape="-60.28,-43.15 -71.48,-42.90"/>
    </edge>
    <edge id=":J28_1" function="internal">
        <lane id=":J28_1_0" index="0" speed="13.89" length="11.20" shape="-71.55,-46.09 -60.35,-46.35"/>
    </edge>
    <edge id=":J28_2" function="internal">
        <lane id=":J28_2_0" index="0" speed="6.44" length="9.03" shape="-65.88,-37.37 -66.21,-39.84 -67.25,-41.58 -69.01,-42.60 -71.48,-42.90"/>
    </edge>
    <edge id=":J28_3" function="internal">
        <lane id=":J28_3_0" index="0" speed="7.42" length="11.76" shape="-65.88,-37.37 -65.50,-41.25 -64.46,-44.04 -62.74,-45.74 -60.35,-46.35"/>
    </edge>
    <edge id=":J29_0" function="internal">
        <lane id=":J29_0_0" index="0" speed="6.50" length="9.03" shape="-17.81,-38.50 -18.21,-40.95 -19.30,-42.67 -21.07,-43.68 -23.53,-43.98"/>
    </edge>
    <edge id=":J29_1" function="internal">
        <lane id=":J29_1_0" index="0" speed="8.01" length="14.20" shape="-17.81,-38.50 -17.34,-42.37 -15.75,-45.15 -13.04,-46.86 -9.20,-47.50"/>
    </edge>
    <edge id=":J29_2" function="internal">
        <lane id=":J29_2_0" index="0" speed="3.24" length="3.20" shape="-17.81,-38.50 -14.61,-38.57"/>
    </edge>
    <edge id=":J29_3" function="internal">
        <lane id=":J29_3_0" index="0" speed="3.24" length="3.20" shape="-17.81,-38.50 -14.61,-38.57"/>
    </edge>
    <edge id=":J29_4" function="internal">
        <lane id=":J29_4_0" index="0" speed="6.51" length="9.04" shape="-9.13,-44.30 -11.57,-43.90 -13.30,-42.81 -14.31,-41.03 -14.61,-38.57"/>
    </edge>
    <edge id=":J29_5" function="internal">
        <lane id=":J29_5_0" index="0" speed="6.51" length="9.04" shape="-9.13,-44.30 -11.57,-43.90 -13.30,-42.81 -14.31,-41.03 -14.61,-38.57"/>
    </edge>
    <edge id=":J29_6" function="internal">
        <lane id=":J29_6_0" index="0" speed="6.51" length="9.04" shape="-9.13,-44.30 -11.57,-43.90 -13.30,-42.81 -14.31,-41.03 -14.61,-38.57"/>
    </edge>
    <edge id=":J29_7" function="internal">
        <lane id=":J29_7_0" index="0" speed="13.89" length="14.40" shape="-9.13,-44.30 -23.53,-43.98"/>
    </edge>
    <edge id=":J29_8" function="internal">
        <lane id=":J29_8_0" index="0" speed="13.89" length="14.40" shape="-23.60,-47.18 -9.20,-47.50"/>
    </edge>
    <edge id=":J29_9" function="internal">
        <lane id=":J29_9_0" index="0" speed="8.00" length="4.07" shape="-23.60,-47.18 -19.74,-46.71 -19.58,-46.63"/>
    </edge>
    <edge id=":J29_10" function="internal">
        <lane id=":J29_10_0" index="0" speed="8.00" length="4.07" shape="-23.60,-47.18 -19.74,-46.71 -19.58,-46.63"/>
    </edge>
    <edge id=":J29_11" function="internal">
        <lane id=":J29_11_0" index="0" speed="8.00" length="4.07" shape="-23.60,-47.18 -19.74,-46.71 -19.58,-46.63"/>
    </edge>
    <edge id=":J29_12" function="internal">
        <lane id=":J29_12_0" index="0" speed="8.00" length="10.13" shape="-19.58,-46.63 -16.95,-45.12 -15.24,-42.41 -14.61,-38.57"/>
    </edge>
    <edge id=":J29_13" function="internal">
        <lane id=":J29_13_0" index="0" speed="8.00" length="10.13" shape="-19.58,-46.63 -16.95,-45.12 -15.24,-42.41 -14.61,-38.57"/>
    </edge>
    <edge id=":J29_14" function="internal">
        <lane id=":J29_14_0" index="0" speed="8.00" length="10.13" shape="-19.58,-46.63 -16.95,-45.12 -15.24,-42.41 -14.61,-38.57"/>
    </edge>
    <edge id=":J3_0" function="internal">
        <lane id=":J3_0_0" index="0" speed="13.89" length="15.63" shape="-8.33,88.68 -12.17,88.89 -16.14,88.85 -20.10,88.56 -23.91,88.04"/>
    </edge>
    <edge id=":J3_1" function="internal">
        <lane id=":J3_1_0" index="0" speed="6.35" length="9.21" shape="-14.31,80.04 -13.98,82.62 -12.92,84.39 -11.14,85.35 -8.62,85.49"/>
    </edge>
    <edge id=":J3_2" function="internal">
        <lane id=":J3_2_0" index="0" speed="7.74" length="14.84" shape="-14.31,80.04 -14.95,84.15 -16.76,86.86 -19.75,88.15 -23.91,88.04"/>
    </edge>
    <edge id=":J3_3" function="internal">
        <lane id=":J3_3_0" index="0" speed="6.19" length="9.05" shape="-23.37,84.89 -20.83,84.96 -19.01,84.17 -17.90,82.52 -17.51,80.01"/>
    </edge>
    <edge id=":J3_4" function="internal">
        <lane id=":J3_4_0" index="0" speed="13.89" length="14.79" shape="-23.37,84.89 -19.68,85.40 -16.01,85.68 -12.34,85.71 -8.62,85.49"/>
    </edge>
    <edge id=":J30_0" function="internal">
        <lane id=":J30_0_0" index="0" speed="13.89" length="11.31" shape="18.56,-44.92 7.25,-44.67"/>
    </edge>
    <edge id=":J30_1" function="internal">
        <lane id=":J30_1_0" index="0" speed="13.89" length="11.31" shape="7.18,-47.87 18.48,-48.12"/>
    </edge>
    <edge id=":J30_2" function="internal">
        <lane id=":J30_2_0" index="0" speed="6.02" length="9.07" shape="11.91,-38.90 12.15,-41.47 11.45,-43.29 9.82,-44.36 7.25,-44.67"/>
    </edge>
    <edge id=":J30_3" function="internal">
        <lane id=":J30_3_0" index="0" speed="8.21" length="12.06" shape="11.91,-38.90 13.14,-42.89 14.64,-45.77 16.42,-47.51 18.48,-48.12"/>
    </edge>
    <edge id=":J31_0" function="internal">
        <lane id=":J31_0_0" index="0" speed="13.89" length="11.26" shape="50.51,-45.65 39.26,-45.39"/>
    </edge>
    <edge id=":J31_1" function="internal">
        <lane id=":J31_1_0" index="0" speed="13.89" length="11.26" shape="39.18,-48.59 50.44,-48.85"/>
    </edge>
    <edge id=":J31_2" function="internal">
        <lane id=":J31_2_0" index="0" speed="6.13" length="9.06" shape="44.19,-39.67 44.26,-42.22 43.46,-44.03 41.79,-45.08 39.26,-45.39"/>
    </edge>
    <edge id=":J31_3" function="internal">
        <lane id=":J31_3_0" index="0" speed="7.96" length="11.96" shape="44.19,-39.67 45.17,-43.64 46.53,-46.50 48.29,-48.23 50.44,-48.85"/>
    </edge>
    <edge id=":J32_0" function="internal">
        <lane id=":J32_0_0" index="0" speed="13.89" length="11.20" shape="-112.16,-0.55 -112.29,-11.75"/>
    </edge>
    <edge id=":J32_1" function="internal">
        <lane id=":J32_1_0" index="0" speed="7.51" length="2.42" shape="-112.16,-0.55 -111.63,-2.90"/>
    </edge>
    <edge id=":J32_4" function="internal">
        <lane id=":J32_4_0" index="0" speed="7.51" length="9.37" shape="-111.63,-2.90 -109.98,-4.68 -107.22,-5.89 -103.33,-6.51"/>
    </edge>
    <edge id=":J32_2" function="internal">
        <lane id=":J32_2_0" index="0" speed="6.37" length="9.04" shape="-109.09,-11.79 -108.70,-9.32 -107.61,-7.61 -105.82,-6.68 -103.33,-6.51"/>
    </edge>
    <edge id=":J32_3" function="internal">
        <lane id=":J32_3_0" index="0" speed="13.89" length="11.21" shape="-109.09,-11.79 -108.96,-0.58"/>
    </edge>
    <edge id=":J33_0" function="internal">
        <lane id=":J33_0_0" index="0" speed="6.68" length="8.94" shape="-71.58,-8.87 -69.21,-9.39 -67.51,-10.53 -66.48,-12.30 -66.12,-14.70"/>
    </edge>