<?xml version="1.0" encoding="UTF-8"?>

<!-- generated on 2022-09-30 09:06:45 by Eclipse SUMO netconvert Version 1.14.1
<configuration xmlns:xsi="http://www.w3.org/2001/XMLSchema-instance" xsi:noNamespaceSchemaLocation="http://sumo.dlr.de/xsd/netconvertConfiguration.xsd">

    <input>
        <osm-files value="bologna.osm.xml"/>
    </input>

    <output>
        <output-file value="bologna.net.xml"/>
    </output>

    <projection>
        <proj.utm value="true"/>
    </projection>

</configuration>
-->

<net version="1.9" junctionCornerDetail="5" limitTurnSpeed="5.50" xmlns:xsi="http://www.w3.org/2001/XMLSchema-instance" xsi:noNamespaceSchemaLocation="http://sumo.dlr.de/xsd/net_file.xsd">

    <location netOffset="-685360.45,-4929526.62" convBoundary="0.00,0.00,1661.40,1170.72" origBoundary="11.326738,44.487281,11.352629,44.506479" projParameter="+proj=utm +zone=32 +ellps=WGS84 +datum=WGS84 +units=m +no_defs"/>

    <type id="highway.bridleway" priority="1" numLanes="1" speed="2.78" allow="pedestrian" oneway="1" width="2.00"/>
    <type id="highway.bus_guideway" priority="1" numLanes="1" speed="27.78" allow="bus" oneway="1"/>
    <type id="highway.cycleway" priority="1" numLanes="1" speed="5.56" allow="bicycle" oneway="0" width="1.00"/>
    <type id="highway.footway" priority="1" numLanes="1" speed="2.78" allow="pedestrian" oneway="1" width="2.00"/>
    <type id="highway.ford" priority="1" numLanes="1" speed="2.78" allow="army" oneway="0"/>
    <type id="highway.living_street" priority="2" numLanes="1" speed="2.78" disallow="tram rail_urban rail rail_electric rail_fast ship" oneway="0"/>
    <type id="highway.motorway" priority="14" numLanes="2" speed="39.44" allow="private emergency authority army vip passenger hov taxi bus coach delivery truck trailer motorcycle evehicle custom1 custom2" oneway="1"/>
    <type id="highway.motorway_link" priority="9" numLanes="1" speed="22.22" allow="private emergency authority army vip passenger hov taxi bus coach delivery truck trailer motorcycle evehicle custom1 custom2" oneway="1"/>
    <type id="highway.path" priority="1" numLanes="1" speed="5.56" allow="pedestrian bicycle" oneway="0" width="2.00"/>
    <type id="highway.pedestrian" priority="1" numLanes="1" speed="2.78" allow="pedestrian" oneway="1" width="2.00"/>
    <type id="highway.primary" priority="12" numLanes="2" speed="27.78" disallow="tram rail_urban rail rail_electric rail_fast ship" oneway="0"/>
    <type id="highway.primary_link" priority="7" numLanes="1" speed="22.22" disallow="tram rail_urban rail rail_electric rail_fast ship" oneway="0"/>
    <type id="highway.raceway" priority="15" numLanes="2" speed="83.33" allow="vip" oneway="0"/>
    <type id="highway.residential" priority="3" numLanes="1" speed="13.89" disallow="tram rail_urban rail rail_electric rail_fast ship" oneway="0"/>
    <type id="highway.secondary" priority="11" numLanes="1" speed="27.78" disallow="tram rail_urban rail rail_electric rail_fast ship" oneway="0"/>
    <type id="highway.secondary_link" priority="6" numLanes="1" speed="22.22" disallow="tram rail_urban rail rail_electric rail_fast ship" oneway="0"/>
    <type id="highway.service" priority="1" numLanes="1" speed="5.56" allow="pedestrian delivery bicycle" oneway="0"/>
    <type id="highway.stairs" priority="1" numLanes="1" speed="1.39" allow="pedestrian" oneway="1" width="2.00"/>
    <type id="highway.step" priority="1" numLanes="1" speed="1.39" allow="pedestrian" oneway="1" width="2.00"/>
    <type id="highway.steps" priority="1" numLanes="1" speed="1.39" allow="pedestrian" oneway="1" width="2.00"/>
    <type id="highway.tertiary" priority="10" numLanes="1" speed="22.22" disallow="tram rail_urban rail rail_electric rail_fast ship" oneway="0"/>
    <type id="highway.tertiary_link" priority="5" numLanes="1" speed="22.22" disallow="tram rail_urban rail rail_electric rail_fast ship" oneway="0"/>
    <type id="highway.track" priority="1" numLanes="1" speed="5.56" allow="pedestrian motorcycle moped bicycle" oneway="0"/>
    <type id="highway.trunk" priority="13" numLanes="2" speed="27.78" disallow="pedestrian bicycle tram rail_urban rail rail_electric rail_fast ship" oneway="0"/>
    <type id="highway.trunk_link" priority="8" numLanes="1" speed="22.22" disallow="pedestrian bicycle tram rail_urban rail rail_electric rail_fast ship" oneway="0"/>
    <type id="highway.unclassified" priority="4" numLanes="1" speed="13.89" disallow="tram rail_urban rail rail_electric rail_fast ship" oneway="0"/>
    <type id="highway.unsurfaced" priority="1" numLanes="1" speed="8.33" disallow="tram rail_urban rail rail_electric rail_fast ship" oneway="0"/>
    <type id="railway.highspeed" priority="21" numLanes="1" speed="69.44" allow="rail_fast" oneway="1"/>
    <type id="railway.light_rail" priority="19" numLanes="1" speed="27.78" allow="rail_urban" oneway="1"/>
    <type id="railway.preserved" priority="16" numLanes="1" speed="27.78" allow="rail" oneway="1"/>
    <type id="railway.rail" priority="20" numLanes="1" speed="44.44" allow="rail" oneway="1"/>
    <type id="railway.subway" priority="18" numLanes="1" speed="27.78" allow="rail_urban" oneway="1"/>
    <type id="railway.tram" priority="17" numLanes="1" speed="13.89" allow="tram" oneway="1"/>

    <edge id=":1116129776_0" function="internal">
        <lane id=":1116129776_0_0" index="0" allow="pedestrian delivery bicycle" speed="3.65" length="4.67" shape="1085.56,540.57 1084.19,540.14 1083.58,539.49 1083.74,538.61 1084.66,537.50"/>
    </edge>
    <edge id=":1219012770_0" function="internal">
        <lane id=":1219012770_0_0" index="0" disallow="tram rail_urban rail rail_electric rail_fast ship" speed="11.11" length="14.33" shape="1028.21,1084.26 1031.44,1085.33 1034.39,1086.21 1037.74,1086.63 1042.20,1086.26"/>
    </edge>
    <edge id=":1219012770_1" function="internal">
        <lane id=":1219012770_1_0" index="0" disallow="tram rail_urban rail rail_electric rail_fast ship" speed="13.89" length="14.09" shape="1028.32,1089.38 1042.20,1086.26"/>
        <lane id=":1219012770_1_1" index="1" disallow="tram rail_urban rail rail_electric rail_fast ship" speed="13.89" length="14.09" shape="1028.96,1092.52 1042.71,1089.42"/>
        <lane id=":1219012770_1_2" index="2" disallow="tram rail_urban rail rail_electric rail_fast ship" speed="13.89" length="14.09" shape="1029.60,1095.65 1043.22,1092.58"/>
    </edge>
    <edge id=":1223006441_0" function="internal">
        <lane id=":1223006441_0_0" index="0" disallow="tram rail_urban rail rail_electric rail_fast ship" speed="13.89" length="0.30" shape="958.61,1121.17 958.31,1121.23"/>
        <lane id=":1223006441_0_1" index="1" disallow="tram rail_urban rail rail_electric rail_fast ship" speed="13.89" length="0.30" shape="957.99,1118.03 957.70,1118.09"/>
        <lane id=":1223006441_0_2" index="2" disallow="tram rail_urban rail rail_electric rail_fast ship" speed="13.89" length="0.30" shape="957.37,1114.89 957.08,1114.95"/>
    </edge>
    <edge id=":1312716240_0" function="internal">
        <lane id=":1312716240_0_0" index="0" disallow="tram rail_urban rail rail_electric rail_fast ship" speed="8.33" length="9.37" shape="697.85,549.01 700.87,557.88"/>
    </edge>
    <edge id=":1312716240_1" function="internal">
        <lane id=":1312716240_1_0" index="0" disallow="tram rail_urban rail rail_electric rail_fast ship" speed="6.07" length="7.79" shape="697.85,549.01 698.52,551.70 698.57,553.75 698.00,555.18 696.81,555.97"/>
    </edge>
    <edge id=":1312716240_2" function="internal">
        <lane id=":1312716240_2_0" index="0" disallow="tram rail_urban rail rail_electric rail_fast ship" speed="6.16" length="7.76" shape="695.85,552.91 697.26,552.88 698.57,553.69 699.77,555.36 700.87,557.88"/>
    </edge>
    <edge id=":1312716240_3" function="internal">
        <lane id=":1312716240_3_0" index="0" disallow="tram rail_urban rail rail_electric rail_fast ship" speed="3.65" length="4.67" shape="695.85,552.91 697.23,553.32 697.85,553.96 697.71,554.84 696.81,555.97"/>
    </edge>
    <edge id=":1312716241_0" function="internal">
        <lane id=":1312716241_0_0" index="0" disallow="tram rail_urban rail rail_electric rail_fast ship" speed="6.44" length="9.03" shape="664.09,566.27 661.84,567.35 660.51,568.88 660.08,570.87 660.55,573.31"/>
    </edge>
    <edge id=":1312716241_1" function="internal">
        <lane id=":1312716241_1_0" index="0" disallow="tram rail_urban rail rail_electric rail_fast ship" speed="3.65" length="4.67" shape="664.09,566.27 662.70,565.87 662.08,565.23 662.22,564.34 663.12,563.22"/>
    </edge>
    <edge id=":1312716241_2" function="internal">
        <lane id=":1312716241_2_0" index="0" disallow="tram rail_urban rail rail_electric rail_fast ship" speed="6.50" length="9.08" shape="656.09,559.55 657.14,561.79 658.66,563.16 660.65,563.63 663.12,563.22"/>
    </edge>
    <edge id=":1312716241_3" function="internal">
        <lane id=":1312716241_3_0" index="0" disallow="tram rail_urban rail rail_electric rail_fast ship" speed="8.33" length="14.46" shape="656.09,559.55 660.55,573.31"/>
    </edge>
    <edge id=":1617159096_0" function="internal">
        <lane id=":1617159096_0_0" index="0" allow="bus bicycle" speed="8.33" length="7.95" shape="1057.83,946.07 1056.74,938.20"/>
    </edge>
    <edge id=":1617159096_1" function="internal">
        <lane id=":1617159096_1_0" index="0" allow="pedestrian bus delivery bicycle" speed="5.34" length="7.20" shape="1057.83,946.07 1057.48,941.75 1057.77,940.17 1058.56,941.16"/>
    </edge>
    <edge id=":1617159096_2" function="internal">
        <lane id=":1617159096_2_0" index="0" allow="pedestrian bus delivery bicycle" speed="3.68" length="1.59" shape="1057.83,946.07 1058.21,944.65 1058.29,944.57"/>
    </edge>
    <edge id=":1617159096_6" function="internal">
        <lane id=":1617159096_6_0" index="0" allow="pedestrian bus delivery bicycle" speed="5.34" length="4.45" shape="1058.56,941.16 1058.70,941.34 1060.27,945.25"/>
    </edge>
    <edge id=":1617159096_7" function="internal">
        <lane id=":1617159096_7_0" index="0" allow="pedestrian bus delivery bicycle" speed="3.68" length="3.19" shape="1058.29,944.57 1058.86,944.00 1059.76,944.13 1060.93,945.03"/>
    </edge>
    <edge id=":1617159096_3" function="internal">
        <lane id=":1617159096_3_0" index="0" disallow="tram rail_urban rail rail_electric rail_fast ship" speed="8.33" length="8.99" shape="1063.05,937.15 1062.71,939.63 1061.39,941.27 1060.20,942.88 1060.27,945.25"/>
    </edge>
    <edge id=":1617159096_4" function="internal">
        <lane id=":1617159096_4_0" index="0" allow="pedestrian bus delivery bicycle" speed="8.33" length="7.43" shape="1059.90,937.67 1060.93,945.03"/>
    </edge>
    <edge id=":1617159096_5" function="internal">
        <lane id=":1617159096_5_0" index="0" allow="bus bicycle" speed="3.65" length="1.44" shape="1059.90,937.67 1059.30,938.99"/>
    </edge>
    <edge id=":1617159096_8" function="internal">
        <lane id=":1617159096_8_0" index="0" allow="bus bicycle" speed="3.65" length="3.23" shape="1059.30,938.99 1058.58,939.51 1057.73,939.25 1056.74,938.20"/>
    </edge>
    <edge id=":1617159144_0" function="internal">
        <lane id=":1617159144_0_0" index="0" disallow="tram rail_urban rail rail_electric rail_fast ship" speed="8.33" length="8.33" shape="982.46,1026.51 980.85,1024.63 979.74,1023.36 978.56,1022.14 976.78,1020.43"/>
    </edge>
    <edge id=":1617159144_1" function="internal">
        <lane id=":1617159144_1_0" index="0" disallow="tram rail_urban rail rail_electric rail_fast ship" speed="6.39" length="10.42" shape="982.46,1026.51 981.29,1024.40 981.50,1022.39 983.10,1020.47 986.08,1018.66"/>
    </edge>
    <edge id=":1617159144_2" function="internal">
        <lane id=":1617159144_2_0" index="0" allow="bus bicycle" speed="3.65" length="4.67" shape="982.46,1026.51 982.28,1025.07 982.63,1024.25 983.49,1024.03 984.88,1024.41"/>
    </edge>
    <edge id=":1617159144_3" function="internal">
        <lane id=":1617159144_3_0" index="0" allow="bus bicycle" speed="6.99" length="7.61" shape="978.97,1018.10 980.46,1019.12 982.15,1019.55 984.02,1019.40 986.08,1018.66"/>
    </edge>
    <edge id=":1617159144_4" function="internal">
        <lane id=":1617159144_4_0" index="0" allow="bus bicycle" speed="8.33" length="8.66" shape="978.97,1018.10 980.83,1019.88 982.05,1021.14 983.21,1022.46 984.88,1024.41"/>
    </edge>
    <edge id=":1617159144_5" function="internal">
        <lane id=":1617159144_5_0" index="0" allow="bus bicycle" speed="3.65" length="4.67" shape="978.97,1018.10 979.30,1019.50 979.04,1020.36 978.20,1020.67 976.78,1020.43"/>
    </edge>
    <edge id=":1617159208_0" function="internal">
        <lane id=":1617159208_0_0" index="0" disallow="tram rail_urban rail rail_electric rail_fast ship" speed="8.33" length="10.54" shape="994.51,1079.67 992.56,1069.30"/>
    </edge>
    <edge id=":1617159208_1" function="internal">
        <lane id=":1617159208_1_0" index="0" allow="bus bicycle" speed="3.65" length="4.67" shape="994.51,1079.67 995.10,1078.35 995.83,1077.83 996.68,1078.09 997.66,1079.15"/>
    </edge>
    <edge id=":1617159208_2" function="internal">
        <lane id=":1617159208_2_0" index="0" allow="bus bicycle" speed="6.55" length="8.75" shape="1002.07,1072.75 999.82,1073.59 998.34,1074.94 997.62,1076.79 997.66,1079.15"/>
    </edge>
    <edge id=":1617159208_3" function="internal">
        <lane id=":1617159208_3_0" index="0" disallow="tram rail_urban rail rail_electric rail_fast ship" speed="7.20" length="11.40" shape="1002.07,1072.75 998.33,1073.24 995.50,1072.83 993.58,1071.51 992.56,1069.30"/>
    </edge>
    <edge id=":1617159208_4" function="internal">
        <lane id=":1617159208_4_0" index="0" allow="bus bicycle" speed="8.33" length="10.69" shape="995.69,1068.64 997.66,1079.15"/>
    </edge>
    <edge id=":1617159208_5" function="internal">
        <lane id=":1617159208_5_0" index="0" allow="bus bicycle" speed="3.65" length="4.67" shape="995.69,1068.64 995.16,1069.98 994.46,1070.54 993.59,1070.31 992.56,1069.30"/>
    </edge>
    <edge id=":1617159237_0" function="internal">
        <lane id=":1617159237_0_0" index="0" allow="bus bicycle" speed="6.44" length="9.03" shape="997.87,1080.38 998.62,1082.76 999.94,1084.29 1001.85,1085.00 1004.33,1084.88"/>
    </edge>
    <edge id=":1617159237_1" function="internal">
        <lane id=":1617159237_1_0" index="0" allow="bus bicycle" speed="6.95" length="11.28" shape="997.87,1080.38 998.14,1083.53 998.01,1086.02 997.92,1088.50 998.29,1091.63"/>
    </edge>
    <edge id=":1617159237_2" function="internal">
        <lane id=":1617159237_2_0" index="0" allow="bus bicycle" speed="3.65" length="4.67" shape="997.87,1080.38 997.27,1081.70 996.55,1082.22 995.69,1081.96 994.71,1080.90"/>
    </edge>
    <edge id=":1617159237_3" function="internal">
        <lane id=":1617159237_3_0" index="0" disallow="tram rail_urban rail rail_electric rail_fast ship" speed="8.33" length="12.18" shape="992.74,1092.50 994.39,1089.67 995.12,1087.03 995.15,1084.23 994.71,1080.90"/>
    </edge>
    <edge id=":1617159237_4" function="internal">
        <lane id=":1617159237_4_0" index="0" allow="pedestrian bus delivery bicycle" speed="8.33" length="14.21" shape="992.74,1092.50 995.09,1089.73 997.78,1087.53 1000.86,1085.90 1004.33,1084.88"/>
    </edge>
    <edge id=":1617159237_5" function="internal">
        <lane id=":1617159237_5_0" index="0" allow="pedestrian bus delivery bicycle" speed="5.17" length="8.37" shape="992.74,1092.50 994.76,1090.11 996.36,1089.17 997.54,1089.67 998.29,1091.63"/>
    </edge>
    <edge id=":1617612666_0" function="internal">
        <lane id=":1617612666_0_0" index="0" allow="bicycle" speed="3.36" length="2.35" width="1.00" shape="992.07,880.42 992.06,879.68 992.16,879.00 992.10,878.55 991.65,878.46"/>
    </edge>
    <edge id=":1617612666_1" function="internal">
        <lane id=":1617612666_1_0" index="0" allow="bicycle" speed="6.14" length="8.72" width="1.00" shape="992.07,880.42 991.66,877.20 991.80,874.82 992.49,873.29 993.72,872.60"/>
    </edge>
    <edge id=":1617612666_2" function="internal">
        <lane id=":1617612666_2_0" index="0" allow="bicycle" speed="2.04" length="1.46" width="1.00" shape="992.07,880.42 992.24,880.01 992.47,879.84 992.74,879.92 993.05,880.24"/>
    </edge>
    <edge id=":1617612666_3" function="internal">
        <lane id=":1617612666_3_0" index="0" allow="bicycle" speed="4.22" length="3.22" width="1.00" shape="994.66,877.92 993.82,878.20 993.27,878.68 993.01,879.36 993.05,880.24"/>
    </edge>
    <edge id=":1617612666_4" function="internal">
        <lane id=":1617612666_4_0" index="0" disallow="tram rail_urban rail rail_electric rail_fast ship" speed="8.33" length="3.06" shape="994.47,876.84 991.45,877.37"/>
    </edge>
    <edge id=":1617612666_5" function="internal">
        <lane id=":1617612666_5_0" index="0" allow="bicycle" speed="4.35" length="3.94" width="1.00" shape="990.52,871.11 990.91,871.94 991.57,872.47 992.51,872.69 993.72,872.60"/>
    </edge>
    <edge id=":1617612666_6" function="internal">
        <lane id=":1617612666_6_0" index="0" allow="bicycle" speed="5.56" length="9.48" width="1.00" shape="990.52,871.11 993.05,880.24"/>
    </edge>
    <edge id=":1617612666_7" function="internal">
        <lane id=":1617612666_7_0" index="0" allow="bicycle" speed="5.61" length="7.54" width="1.00" shape="990.52,871.11 990.94,872.64 991.55,875.08 991.92,877.37 991.65,878.46"/>
    </edge>
    <edge id=":1617612666_8" function="internal">
        <lane id=":1617612666_8_0" index="0" disallow="tram rail_urban rail rail_electric rail_fast ship" speed="8.33" length="3.09" shape="990.87,874.23 993.91,873.69"/>
    </edge>
    <edge id=":1617612666_9" function="internal">
        <lane id=":1617612666_9_0" index="0" allow="bicycle" speed="5.25" length="1.59" width="1.00" shape="991.07,875.31 991.58,875.55 992.08,876.45"/>
    </edge>
    <edge id=":1617612666_10" function="internal">
        <lane id=":1617612666_10_0" index="0" allow="bicycle" speed="5.25" length="3.92" width="1.00" shape="992.08,876.45 992.57,878.01 993.05,880.24"/>
    </edge>
    <edge id=":1617612726_0" function="internal">
        <lane id=":1617612726_0_0" index="0" allow="bicycle" speed="5.56" length="1.20" width="1.00" shape="1001.24,994.72 1000.89,994.79 1000.64,994.83 1000.41,994.89 1000.09,995.03"/>
    </edge>
    <edge id=":1617612726_1" function="internal">
        <lane id=":1617612726_1_0" index="0" allow="bicycle" speed="5.56" length="1.44" width="1.00" shape="999.61,994.15 1000.00,993.97 1000.28,993.89 1000.57,993.84 1000.99,993.75"/>
    </edge>
    <edge id=":1617612726_2" function="internal">
        <lane id=":1617612726_2_0" index="0" allow="pedestrian bicycle" speed="2.04" length="0.73" width="1.00" shape="999.61,994.15 1000.06,994.20 1000.29,994.36"/>
    </edge>
    <edge id=":1617612726_3" function="internal">
        <lane id=":1617612726_3_0" index="0" allow="pedestrian bicycle" speed="2.04" length="0.73" width="1.00" shape="1000.29,994.36 1000.30,994.64 1000.09,995.03"/>
    </edge>
    <edge id=":1617612730_0" function="internal">
        <lane id=":1617612730_0_0" index="0" allow="pedestrian bicycle" speed="5.35" length="4.95" width="1.00" shape="998.54,995.87 997.15,996.75 996.21,997.65 995.71,998.58 995.67,999.53"/>
    </edge>
    <edge id=":1617612730_1" function="internal">
        <lane id=":1617612730_1_0" index="0" allow="pedestrian bicycle" speed="5.56" length="6.74" width="1.00" shape="998.54,995.87 996.77,996.81 995.52,997.37 994.19,997.74 992.23,998.11"/>
    </edge>
    <edge id=":1617612730_2" function="internal">
        <lane id=":1617612730_2_0" index="0" allow="pedestrian bicycle" speed="2.04" length="1.46" width="1.00" shape="998.54,995.87 998.09,995.83 997.86,995.67 997.85,995.39 998.06,994.99"/>
    </edge>
    <edge id=":1617612730_3" function="internal">
        <lane id=":1617612730_3_0" index="0" allow="pedestrian bicycle" speed="4.59" length="4.11" width="1.00" shape="994.61,994.09 995.22,994.97 996.00,995.41 996.95,995.42 998.06,994.99"/>
    </edge>
    <edge id=":1617612730_4" function="internal">
        <lane id=":1617612730_4_0" index="0" disallow="tram rail_urban rail rail_electric rail_fast ship" speed="8.33" length="5.58" shape="994.61,994.09 995.21,995.61 995.40,996.72 995.46,997.88 995.67,999.53"/>
    </edge>
    <edge id=":1617612730_5" function="internal">
        <lane id=":1617612730_5_0" index="0" allow="pedestrian bicycle" speed="4.93" length="5.75" width="1.00" shape="994.61,994.09 995.06,995.59 994.82,996.76 993.87,997.60 992.23,998.11"/>
    </edge>
    <edge id=":1617612730_6" function="internal">
        <lane id=":1617612730_6_0" index="0" allow="pedestrian bicycle" speed="5.56" length="6.42" width="1.00" shape="992.06,997.13 993.93,996.78 995.19,996.42 996.38,995.88 998.06,994.99"/>
    </edge>
    <edge id=":1617612730_7" function="internal">
        <lane id=":1617612730_7_0" index="0" allow="pedestrian bicycle" speed="4.72" length="4.92" width="1.00" shape="992.06,997.13 993.44,997.08 994.49,997.46 995.24,998.28 995.67,999.53"/>
    </edge>
    <edge id=":1617612730_8" function="internal">
        <lane id=":1617612730_8_0" index="0" allow="pedestrian bicycle" speed="2.04" length="1.46" width="1.00" shape="992.06,997.13 992.48,997.31 992.64,997.53 992.56,997.80 992.23,998.11"/>
    </edge>
    <edge id=":1617612847_0" function="internal">
        <lane id=":1617612847_0_0" index="0" disallow="tram rail_urban rail rail_electric rail_fast ship" speed="8.33" length="1.50" shape="967.38,1012.83 966.25,1011.85"/>
    </edge>
    <edge id=":1617612847_1" function="internal">
        <lane id=":1617612847_1_0" index="0" allow="bus bicycle" speed="3.65" length="4.67" shape="967.38,1012.83 966.91,1011.47 967.08,1010.59 967.88,1010.20 969.32,1010.29"/>
    </edge>
    <edge id=":1617612872_0" function="internal">
        <lane id=":1617612872_0_0" index="0" allow="pedestrian bicycle" speed="5.56" length="0.30" width="1.00" shape="1032.44,1018.15 1032.35,1017.87"/>
    </edge>
    <edge id=":1617612872_1" function="internal">
        <lane id=":1617612872_1_0" index="0" allow="pedestrian bicycle" speed="5.56" length="0.29" width="1.00" shape="1033.30,1017.57 1033.39,1017.85"/>
    </edge>
    <edge id=":1617612958_0" function="internal">
        <lane id=":1617612958_0_0" index="0" disallow="tram rail_urban rail rail_electric rail_fast ship" speed="8.33" length="4.68" shape="746.48,1047.82 741.88,1048.66"/>
    </edge>
    <edge id=":1617612971_0" function="internal">
        <lane id=":1617612971_0_0" index="0" allow="bicycle" speed="5.56" length="5.20" width="1.00" shape="748.35,1055.17 743.22,1056.04"/>
    </edge>
    <edge id=":1617612971_1" function="internal">
        <lane id=":1617612971_1_0" index="0" allow="bicycle" speed="2.04" length="0.73" width="1.00" shape="748.35,1055.17 747.94,1054.99 747.77,1054.77"/>
    </edge>
    <edge id=":1617612971_4" function="internal">
        <lane id=":1617612971_4_0" index="0" allow="bicycle" speed="2.04" length="0.73" width="1.00" shape="747.77,1054.77 747.85,1054.50 748.18,1054.19"/>
    </edge>
    <edge id=":1617612971_2" function="internal">
        <lane id=":1617612971_2_0" index="0" allow="bicycle" speed="5.56" length="5.19" width="1.00" shape="743.06,1055.06 748.18,1054.19"/>
    </edge>
    <edge id=":1617612971_3" function="internal">
        <lane id=":1617612971_3_0" index="0" allow="bicycle" speed="2.04" length="0.73" width="1.00" shape="743.06,1055.06 743.47,1055.24 743.63,1055.47"/>
    </edge>
    <edge id=":1617612971_5" function="internal">
        <lane id=":1617612971_5_0" index="0" allow="bicycle" speed="2.04" length="0.73" width="1.00" shape="743.63,1055.47 743.55,1055.74 743.22,1056.04"/>
    </edge>
    <edge id=":1617612988_0" function="internal">
        <lane id=":1617612988_0_0" index="0" allow="bicycle" speed="4.62" length="3.63" width="1.00" shape="732.64,1059.98 732.22,1059.10 731.62,1058.52 730.82,1058.25 729.84,1058.28"/>
    </edge>
    <edge id=":1617612988_1" function="internal">
        <lane id=":1617612988_1_0" index="0" disallow="tram rail_urban rail rail_electric rail_fast ship" speed="8.33" length="3.86" shape="733.69,1059.65 732.56,1055.94"/>
        <lane id=":1617612988_1_1" index="1" disallow="tram rail_urban rail rail_electric rail_fast ship" speed="8.33" length="3.86" shape="736.75,1058.71 735.63,1055.03"/>
    </edge>
    <edge id=":1617612988_3" function="internal">
        <lane id=":1617612988_3_0" index="0" allow="bicycle" speed="4.26" length="3.61" width="1.00" shape="737.80,1058.38 737.62,1057.34 737.80,1056.54 738.35,1055.99 739.25,1055.69"/>
    </edge>
    <edge id=":1617612988_4" function="internal">
        <lane id=":1617612988_4_0" index="0" allow="bicycle" speed="5.56" length="9.71" width="1.00" shape="739.42,1056.67 729.84,1058.28"/>
    </edge>
    <edge id=":1617612988_5" function="internal">
        <lane id=":1617612988_5_0" index="0" allow="bicycle" speed="5.17" length="5.45" width="1.00" shape="739.42,1056.67 737.52,1056.85 736.08,1056.69 735.10,1056.19 734.57,1055.35"/>
    </edge>
    <edge id=":1617612988_6" function="internal">
        <lane id=":1617612988_6_0" index="0" allow="bicycle" speed="2.04" length="1.46" width="1.00" shape="739.42,1056.67 739.01,1056.49 738.84,1056.26 738.93,1055.99 739.25,1055.69"/>
    </edge>
    <edge id=":1617612988_7" function="internal">
        <lane id=":1617612988_7_0" index="0" allow="bicycle" speed="3.28" length="2.45" width="1.00" shape="729.67,1057.29 730.42,1057.19 731.07,1057.07 731.48,1056.80 731.50,1056.26"/>
    </edge>
    <edge id=":1617612988_8" function="internal">
        <lane id=":1617612988_8_0" index="0" allow="bicycle" speed="5.56" length="9.71" width="1.00" shape="729.67,1057.29 739.25,1055.69"/>
    </edge>
    <edge id=":1617612988_9" function="internal">
        <lane id=":1617612988_9_0" index="0" allow="bicycle" speed="2.04" length="1.46" width="1.00" shape="729.67,1057.29 730.09,1057.48 730.25,1057.70 730.17,1057.97 729.84,1058.28"/>
    </edge>
    <edge id=":1617612999_0" function="internal">
        <lane id=":1617612999_0_0" index="0" allow="bicycle" speed="5.56" length="0.34" width="1.00" shape="725.12,1059.08 725.46,1059.01"/>
    </edge>
    <edge id=":1617612999_1" function="internal">
        <lane id=":1617612999_1_0" index="0" allow="bicycle" speed="5.56" length="0.32" width="1.00" shape="725.27,1058.03 724.96,1058.09"/>
    </edge>
    <edge id=":1617613055_0" function="internal">
        <lane id=":1617613055_0_0" index="0" disallow="tram rail_urban rail rail_electric rail_fast ship" speed="7.45" length="4.97" shape="448.86,1078.05 448.59,1076.71 448.12,1075.54 447.47,1074.56 446.63,1073.75"/>
        <lane id=":1617613055_0_1" index="1" disallow="tram rail_urban rail rail_electric rail_fast ship" speed="9.04" length="7.52" shape="452.03,1077.66 451.62,1075.68 450.91,1073.94 449.89,1072.45 448.57,1071.21"/>
    </edge>
    <edge id=":1617613055_2" function="internal">
        <lane id=":1617613055_2_0" index="0" disallow="tram rail_urban rail rail_electric rail_fast ship" speed="13.89" length="12.20" shape="456.41,1081.09 446.63,1073.75"/>
        <lane id=":1617613055_2_1" index="1" disallow="tram rail_urban rail rail_electric rail_fast ship" speed="13.89" length="12.20" shape="458.33,1078.53 448.57,1071.21"/>
        <lane id=":1617613055_2_2" index="2" disallow="tram rail_urban rail rail_electric rail_fast ship" speed="13.89" length="12.20" shape="460.25,1075.97 450.51,1068.66"/>
    </edge>
    <edge id=":1617613061_0" function="internal">
        <lane id=":1617613061_0_0" index="0" disallow="tram rail_urban rail rail_electric rail_fast ship" speed="11.18" length="3.90" shape="447.82,1081.25 448.20,1080.36 448.59,1079.77 448.86,1079.17 448.88,1078.25"/>
        <lane id=":1617613061_0_1" index="1" disallow="tram rail_urban rail rail_electric rail_fast ship" speed="13.13" length="3.90" shape="450.89,1082.16 451.38,1080.90 451.81,1080.04 452.08,1079.16 452.06,1077.86"/>
    </edge>
    <edge id=":1617613084_0" function="internal">
        <lane id=":1617613084_0_0" index="0" disallow="tram rail_urban rail rail_electric rail_fast ship" speed="13.89" length="0.30" shape="446.69,1085.05 446.77,1084.78"/>
        <lane id=":1617613084_0_1" index="1" disallow="tram rail_urban rail rail_electric rail_fast ship" speed="13.89" length="0.30" shape="449.75,1085.98 449.84,1085.69"/>
    </edge>
    <edge id=":1617613093_0" function="internal">
        <lane id=":1617613093_0_0" index="0" allow="bicycle" speed="2.04" length="1.46" width="1.00" shape="543.02,1093.24 542.60,1093.08 542.42,1092.86 542.49,1092.59 542.80,1092.26"/>
    </edge>
    <edge id=":1617613096_0" function="internal">
        <lane id=":1617613096_0_0" index="0" disallow="tram rail_urban rail rail_electric rail_fast ship" speed="8.33" length="1.63" shape="524.50,1098.94 525.57,1097.63"/>
        <lane id=":1617613096_0_1" index="1" disallow="tram rail_urban rail rail_electric rail_fast ship" speed="8.33" length="1.63" shape="522.10,1096.82 523.09,1095.60"/>
    </edge>
    <edge id=":1617613114_0" function="internal">
        <lane id=":1617613114_0_0" index="0" disallow="tram rail_urban rail rail_electric rail_fast ship" speed="13.89" length="0.36" shape="527.16,1103.83 526.79,1103.55"/>
        <lane id=":1617613114_0_1" index="1" disallow="tram rail_urban rail rail_electric rail_fast ship" speed="13.89" length="0.36" shape="525.24,1106.39 524.95,1106.17"/>
        <lane id=":1617613114_0_2" index="2" disallow="tram rail_urban rail rail_electric rail_fast ship" speed="13.89" length="0.36" shape="523.32,1108.95 523.12,1108.79"/>
    </edge>
    <edge id=":1618140799_0" function="internal">