<?xml version="1.0" encoding="UTF-8"?>

<!-- generated on 2022-09-30 10:17:37 by Eclipse SUMO netconvert Version 1.14.1
<configuration xmlns:xsi="http://www.w3.org/2001/XMLSchema-instance" xsi:noNamespaceSchemaLocation="http://sumo.dlr.de/xsd/netconvertConfiguration.xsd">

    <input>
        <osm-files value="sanfrancisco.osm.xml"/>
    </input>

    <output>
        <output-file value="sanfrancisco.net.xml"/>
    </output>

    <projection>
        <proj.utm value="true"/>
    </projection>

</configuration>
-->

<net version="1.9" junctionCornerDetail="5" limitTurnSpeed="5.50" xmlns:xsi="http://www.w3.org/2001/XMLSchema-instance" xsi:noNamespaceSchemaLocation="http://sumo.dlr.de/xsd/net_file.xsd">

    <location netOffset="-553092.19,-4177996.67" convBoundary="0.00,0.00,1033.27,3012.05" origBoundary="-122.397249,37.747678,-122.385513,37.774851" projParameter="+proj=utm +zone=10 +ellps=WGS84 +datum=WGS84 +units=m +no_defs"/>

    <type id="highway.bridleway" priority="1" numLanes="1" speed="2.78" allow="pedestrian" oneway="1" width="2.00"/>
    <type id="highway.bus_guideway" priority="1" numLanes="1" speed="27.78" allow="bus" oneway="1"/>
    <type id="highway.cycleway" priority="1" numLanes="1" speed="5.56" allow="bicycle" oneway="0" width="1.00"/>
    <type id="highway.footway" priority="1" numLanes="1" speed="2.78" allow="pedestrian" oneway="1" width="2.00"/>
    <type id="highway.ford" priority="1" numLanes="1" speed="2.78" allow="army" oneway="0"/>
    <type id="highway.living_street" priority="2" numLanes="1" speed="2.78" disallow="tram rail_urban rail rail_electric rail_fast ship" oneway="0"/>
    <type id="highway.motorway" priority="14" numLanes="2" speed="39.44" allow="private emergency authority army vip passenger hov taxi bus coach delivery truck trailer motorcycle evehicle custom1 custom2" oneway="1"/>
    <type id="highway.motorway_link" priority="9" numLanes="1" speed="22.22" allow="private emergency authority army vip passenger hov taxi bus coach delivery truck trailer motorcycle evehicle custom1 custom2" oneway="1"/>
    <type id="highway.path" priority="1" numLanes="1" speed="5.56" allow="pedestrian bicycle" oneway="0" width="2.00"/>
    <type id="highway.pedestrian" priority="1" numLanes="1" speed="2.78" allow="pedestrian" oneway="1" width="2.00"/>
    <type id="highway.primary" priority="12" numLanes="2" speed="27.78" disallow="tram rail_urban rail rail_electric rail_fast ship" oneway="0"/>
    <type id="highway.primary_link" priority="7" numLanes="1" speed="22.22" disallow="tram rail_urban rail rail_electric rail_fast ship" oneway="0"/>
    <type id="highway.raceway" priority="15" numLanes="2" speed="83.33" allow="vip" oneway="0"/>
    <type id="highway.residential" priority="3" numLanes="1" speed="13.89" disallow="tram rail_urban rail rail_electric rail_fast ship" oneway="0"/>
    <type id="highway.secondary" priority="11" numLanes="1" speed="27.78" disallow="tram rail_urban rail rail_electric rail_fast ship" oneway="0"/>
    <type id="highway.secondary_link" priority="6" numLanes="1" speed="22.22" disallow="tram rail_urban rail rail_electric rail_fast ship" oneway="0"/>
    <type id="highway.service" priority="1" numLanes="1" speed="5.56" allow="pedestrian delivery bicycle" oneway="0"/>
    <type id="highway.stairs" priority="1" numLanes="1" speed="1.39" allow="pedestrian" oneway="1" width="2.00"/>
    <type id="highway.step" priority="1" numLanes="1" speed="1.39" allow="pedestrian" oneway="1" width="2.00"/>
    <type id="highway.steps" priority="1" numLanes="1" speed="1.39" allow="pedestrian" oneway="1" width="2.00"/>
    <type id="highway.tertiary" priority="10" numLanes="1" speed="22.22" disallow="tram rail_urban rail rail_electric rail_fast ship" oneway="0"/>
    <type id="highway.tertiary_link" priority="5" numLanes="1" speed="22.22" disallow="tram rail_urban rail rail_electric rail_fast ship" oneway="0"/>
    <type id="highway.track" priority="1" numLanes="1" speed="5.56" allow="pedestrian motorcycle moped bicycle" oneway="0"/>
    <type id="highway.trunk" priority="13" numLanes="2" speed="27.78" disallow="pedestrian bicycle tram rail_urban rail rail_electric rail_fast ship" oneway="0"/>
    <type id="highway.trunk_link" priority="8" numLanes="1" speed="22.22" disallow="pedestrian bicycle tram rail_urban rail rail_electric rail_fast ship" oneway="0"/>
    <type id="highway.unclassified" priority="4" numLanes="1" speed="13.89" disallow="tram rail_urban rail rail_electric rail_fast ship" oneway="0"/>
    <type id="highway.unsurfaced" priority="1" numLanes="1" speed="8.33" disallow="tram rail_urban rail rail_electric rail_fast ship" oneway="0"/>
    <type id="railway.highspeed" priority="21" numLanes="1" speed="69.44" allow="rail_fast" oneway="1"/>
    <type id="railway.light_rail" priority="19" numLanes="1" speed="27.78" allow="rail_urban" oneway="1"/>
    <type id="railway.preserved" priority="16" numLanes="1" speed="27.78" allow="rail" oneway="1"/>
    <type id="railway.rail" priority="20" numLanes="1" speed="44.44" allow="rail" oneway="1"/>
    <type id="railway.subway" priority="18" numLanes="1" speed="27.78" allow="rail_urban" oneway="1"/>
    <type id="railway.tram" priority="17" numLanes="1" speed="13.89" allow="tram" oneway="1"/>

    <edge id=":1037911870_0" function="internal">
        <lane id=":1037911870_0_0" index="0" allow="rail_urban" speed="27.78" length="7.45" shape="747.16,1714.98 746.56,1722.40"/>
    </edge>
    <edge id=":1037911870_1" function="internal">
        <lane id=":1037911870_1_0" index="0" allow="rail_urban" speed="27.78" length="8.25" shape="746.37,1721.31 747.40,1719.10 748.26,1717.66 749.32,1716.36 750.98,1714.56"/>
    </edge>
    <edge id=":1037911906_0" function="internal">
        <lane id=":1037911906_0_0" index="0" allow="rail_urban" speed="27.78" length="28.00" shape="756.08,1574.06 754.81,1579.69 753.48,1587.80 752.40,1595.95 751.90,1601.71"/>
    </edge>
    <edge id=":1037911906_1" function="internal">
        <lane id=":1037911906_1_0" index="0" allow="rail_urban" speed="27.78" length="28.22" shape="752.89,1573.51 751.90,1601.71"/>
    </edge>
    <edge id=":1037911910_0" function="internal">
        <lane id=":1037911910_0_0" index="0" allow="rail_urban" speed="27.78" length="5.79" shape="757.89,1710.09 759.49,1709.47 760.61,1709.10 761.76,1708.83 763.45,1708.52"/>
    </edge>
    <edge id=":1037911924_0" function="internal">
        <lane id=":1037911924_0_0" index="0" allow="rail_urban" speed="27.78" length="10.11" shape="763.01,1567.12 755.59,1574.00"/>
    </edge>
    <edge id=":1037911924_1" function="internal">
        <lane id=":1037911924_1_0" index="0" disallow="tram rail_urban rail rail_electric rail_fast ship" speed="13.41" length="6.32" shape="759.87,1567.72 759.71,1574.04"/>
        <lane id=":1037911924_1_1" index="1" disallow="tram rail_urban rail rail_electric rail_fast ship" speed="13.41" length="6.32" shape="756.68,1567.64 756.51,1573.96"/>
    </edge>
    <edge id=":1205120670_0" function="internal">
        <lane id=":1205120670_0_0" index="0" disallow="tram rail_urban rail rail_electric rail_fast ship" speed="13.89" length="2.46" shape="845.90,1430.20 848.34,1430.51"/>
    </edge>
    <edge id=":1205120670_1" function="internal">
        <lane id=":1205120670_1_0" index="0" disallow="tram rail_urban rail rail_electric rail_fast ship" speed="13.89" length="2.40" shape="848.68,1427.33 846.30,1427.02"/>
    </edge>
    <edge id=":1233283274_0" function="internal">
        <lane id=":1233283274_0_0" index="0" disallow="tram rail_urban rail rail_electric rail_fast ship" speed="13.41" length="8.16" shape="779.95,1357.78 779.92,1360.15 780.29,1361.77 780.69,1363.39 780.74,1365.76"/>
        <lane id=":1233283274_0_1" index="1" disallow="tram rail_urban rail rail_electric rail_fast ship" speed="13.41" length="8.16" shape="776.77,1357.40 776.74,1359.80 777.11,1361.44 777.51,1363.09 777.55,1365.49"/>
        <lane id=":1233283274_0_2" index="2" disallow="tram rail_urban rail rail_electric rail_fast ship" speed="13.41" length="8.16" shape="776.77,1357.40 776.24,1359.76 775.51,1361.31 774.82,1362.85 774.36,1365.22"/>
    </edge>
    <edge id=":1344032262_0" function="internal">
        <lane id=":1344032262_0_0" index="0" allow="rail" speed="25.70" length="0.30" shape="375.89,1743.76 375.92,1743.47"/>
    </edge>
    <edge id=":1563110109_0" function="internal">
        <lane id=":1563110109_0_0" index="0" disallow="tram rail_urban rail rail_electric rail_fast ship" speed="13.89" length="10.06" shape="743.42,1705.78 733.39,1704.96"/>
    </edge>
    <edge id=":1563110109_1" function="internal">
        <lane id=":1563110109_1_0" index="0" disallow="tram rail_urban rail rail_electric rail_fast ship" speed="6.44" length="8.92" shape="743.42,1705.78 742.07,1705.20 741.20,1703.72 740.82,1701.32 740.92,1698.02"/>
    </edge>
    <edge id=":1563110109_2" function="internal">
        <lane id=":1563110109_2_0" index="0" disallow="tram rail_urban rail rail_electric rail_fast ship" speed="3.65" length="4.67" shape="743.42,1705.78 742.29,1704.89 741.95,1704.06 742.41,1703.30 743.67,1702.59"/>
    </edge>
    <edge id=":1563110109_3" function="internal">
        <lane id=":1563110109_3_0" index="0" disallow="tram rail_urban rail rail_electric rail_fast ship" speed="5.65" length="6.52" shape="733.67,1701.77 735.30,1701.63 736.52,1700.92 737.33,1699.61 737.73,1697.73"/>
    </edge>
    <edge id=":1563110109_4" function="internal">
        <lane id=":1563110109_4_0" index="0" disallow="tram rail_urban rail rail_electric rail_fast ship" speed="13.89" length="10.03" shape="733.67,1701.77 743.67,1702.59"/>
    </edge>
    <edge id=":1563110109_5" function="internal">
        <lane id=":1563110109_5_0" index="0" disallow="tram rail_urban rail rail_electric rail_fast ship" speed="3.65" length="4.67" shape="733.67,1701.77 734.80,1702.67 735.13,1703.50 734.66,1704.26 733.39,1704.96"/>
    </edge>
    <edge id=":1563110109_6" function="internal">
        <lane id=":1563110109_6_0" index="0" disallow="tram rail_urban rail rail_electric rail_fast ship" speed="5.91" length="7.41" shape="736.41,1710.77 736.45,1708.34 735.96,1706.57 734.94,1705.44 733.39,1704.96"/>
    </edge>
    <edge id=":1563110109_7" function="internal">
        <lane id=":1563110109_7_0" index="0" disallow="tram rail_urban rail rail_electric rail_fast ship" speed="13.41" length="13.14" shape="736.41,1710.77 737.73,1697.73"/>
        <lane id=":1563110109_7_1" index="1" disallow="tram rail_urban rail rail_electric rail_fast ship" speed="13.41" length="13.14" shape="739.59,1711.12 740.92,1698.02"/>
    </edge>
    <edge id=":1563110114_0" function="internal">
        <lane id=":1563110114_0_0" index="0" disallow="tram rail_urban rail rail_electric rail_fast ship" speed="5.49" length="6.19" shape="759.02,1707.08 757.04,1707.09 755.59,1707.55 754.67,1708.45 754.28,1709.79"/>
    </edge>
    <edge id=":1563110114_1" function="internal">
        <lane id=":1563110114_1_0" index="0" disallow="tram rail_urban rail rail_electric rail_fast ship" speed="13.89" length="10.59" shape="759.02,1707.08 748.47,1706.17"/>
    </edge>
    <edge id=":1563110114_2" function="internal">
        <lane id=":1563110114_2_0" index="0" disallow="tram rail_urban rail rail_electric rail_fast ship" speed="3.65" length="4.67" shape="759.02,1707.08 757.90,1706.17 757.58,1705.34 758.05,1704.58 759.32,1703.89"/>
    </edge>
    <edge id=":1563110114_3" function="internal">
        <lane id=":1563110114_3_0" index="0" disallow="tram rail_urban rail rail_electric rail_fast ship" speed="5.91" length="7.22" shape="755.14,1699.11 755.27,1701.04 756.01,1702.49 757.36,1703.43 759.32,1703.89"/>
    </edge>
    <edge id=":1563110114_4" function="internal">
        <lane id=":1563110114_4_0" index="0" disallow="tram rail_urban rail rail_electric rail_fast ship" speed="13.41" length="10.71" shape="755.14,1699.11 754.28,1709.79"/>
        <lane id=":1563110114_4_1" index="1" disallow="tram rail_urban rail rail_electric rail_fast ship" speed="13.41" length="10.71" shape="751.96,1698.85 751.09,1709.53"/>
    </edge>
    <edge id=":1563110114_6" function="internal">
        <lane id=":1563110114_6_0" index="0" disallow="tram rail_urban rail rail_electric rail_fast ship" speed="13.89" length="10.64" shape="748.72,1702.98 759.32,1703.89"/>
    </edge>
    <edge id=":1563110114_7" function="internal">
        <lane id=":1563110114_7_0" index="0" disallow="tram rail_urban rail rail_electric rail_fast ship" speed="6.04" length="7.65" shape="748.72,1702.98 749.95,1703.47 750.75,1704.73 751.13,1706.75 751.09,1709.53"/>
    </edge>
    <edge id=":1563110114_8" function="internal">
        <lane id=":1563110114_8_0" index="0" disallow="tram rail_urban rail rail_electric rail_fast ship" speed="3.65" length="4.67" shape="748.72,1702.98 749.85,1703.87 750.19,1704.70 749.73,1705.46 748.47,1706.17"/>
    </edge>
    <edge id=":1589004381_0" function="internal">
        <lane id=":1589004381_0_0" index="0" allow="rail_urban" speed="27.78" length="0.10" shape="850.67,422.44 850.67,422.44"/>
    </edge>
    <edge id=":1589004383_0" function="internal">
        <lane id=":1589004383_0_0" index="0" allow="rail_urban" speed="27.78" length="0.30" shape="849.16,440.38 849.19,440.08"/>
    </edge>
    <edge id=":1589004422_0" function="internal">
        <lane id=":1589004422_0_0" index="0" allow="rail_urban" speed="27.78" length="15.27" shape="741.88,1734.96 743.12,1719.74"/>
    </edge>
    <edge id=":1589004422_1" function="internal">
        <lane id=":1589004422_1_0" index="0" allow="rail_urban" speed="27.78" length="14.24" shape="741.88,1734.96 742.45,1731.39 743.47,1728.07 744.80,1724.83 746.28,1721.50"/>
    </edge>
    <edge id=":1728581532_0" function="internal">
        <lane id=":1728581532_0_0" index="0" allow="pedestrian delivery bicycle" speed="4.21" length="2.92" shape="775.88,1708.63 773.01,1708.09"/>
    </edge>
    <edge id=":1728581532_1" function="internal">
        <lane id=":1728581532_1_0" index="0" disallow="tram rail_urban rail rail_electric rail_fast ship" speed="13.89" length="9.42" shape="775.88,1708.63 766.50,1707.78"/>
    </edge>
    <edge id=":1728581532_2" function="internal">
        <lane id=":1728581532_2_0" index="0" disallow="tram rail_urban rail rail_electric rail_fast ship" speed="13.89" length="9.39" shape="766.81,1704.59 776.16,1705.44"/>
    </edge>
    <edge id=":1728581532_3" function="internal">
        <lane id=":1728581532_3_0" index="0" allow="pedestrian delivery bicycle" speed="5.94" length="4.79" shape="766.81,1704.59 769.73,1705.05 771.45,1705.68"/>
    </edge>
    <edge id=":1728581532_7" function="internal">
        <lane id=":1728581532_7_0" index="0" allow="pedestrian delivery bicycle" speed="5.94" length="3.10" shape="771.45,1705.68 771.74,1705.79 772.83,1706.80 773.01,1708.09"/>
    </edge>
    <edge id=":1728581532_4" function="internal">
        <lane id=":1728581532_4_0" index="0" allow="pedestrian delivery bicycle" speed="4.20" length="3.38" shape="769.87,1707.48 766.50,1707.78"/>
    </edge>
    <edge id=":1728581532_5" function="internal">
        <lane id=":1728581532_5_0" index="0" allow="pedestrian delivery bicycle" speed="6.09" length="7.14" shape="769.87,1707.48 770.45,1706.40 771.69,1705.70 773.59,1705.38 776.16,1705.44"/>
    </edge>
    <edge id=":1728581532_6" function="internal">
        <lane id=":1728581532_6_0" index="0" allow="pedestrian delivery bicycle" speed="3.65" length="4.67" shape="769.87,1707.48 770.88,1706.45 771.75,1706.21 772.45,1706.76 773.01,1708.09"/>
    </edge>
    <edge id=":1728581584_0" function="internal">
        <lane id=":1728581584_0_0" index="0" allow="rail_urban" speed="27.78" length="0.25" shape="853.77,422.40 853.76,422.66"/>
    </edge>
    <edge id=":1728581604_0" function="internal">
        <lane id=":1728581604_0_0" index="0" allow="pedestrian delivery bicycle" speed="5.56" length="3.45" shape="772.97,1708.28 772.47,1711.69"/>
    </edge>
    <edge id=":1728581604_1" function="internal">
        <lane id=":1728581604_1_0" index="0" allow="rail_urban" speed="27.78" length="10.07" shape="766.33,1708.00 769.30,1707.78 771.35,1707.70 773.41,1707.76 776.38,1707.95"/>
    </edge>
    <edge id=":1728581604_2" function="internal">
        <lane id=":1728581604_2_0" index="0" allow="pedestrian delivery bicycle" speed="5.56" length="3.57" shape="769.30,1711.21 769.83,1707.68"/>
    </edge>
    <edge id=":1728581656_0" function="internal">
        <lane id=":1728581656_0_0" index="0" allow="rail_urban" speed="27.78" length="0.28" shape="852.66,440.38 852.64,440.66"/>
    </edge>
    <edge id=":1728581679_0" function="internal">
        <lane id=":1728581679_0_0" index="0" disallow="tram rail_urban rail rail_electric rail_fast ship" speed="13.41" length="7.72" shape="746.89,1490.52 746.78,1488.24 746.33,1486.68 745.90,1485.13 745.85,1482.85"/>
        <lane id=":1728581679_0_1" index="1" disallow="tram rail_urban rail rail_electric rail_fast ship" speed="13.41" length="7.72" shape="750.09,1490.71 749.97,1488.45 749.52,1486.92 749.09,1485.39 749.03,1483.13"/>
        <lane id=":1728581679_0_2" index="2" disallow="tram rail_urban rail rail_electric rail_fast ship" speed="13.41" length="7.72" shape="750.09,1490.71 750.47,1488.50 751.11,1487.06 751.78,1485.62 752.22,1483.42"/>
    </edge>
    <edge id=":258965262_0" function="internal">
        <lane id=":258965262_0_0" index="0" disallow="tram rail_urban rail rail_electric rail_fast ship" speed="13.89" length="11.74" shape="760.73,1422.53 749.03,1421.58"/>
    </edge>
    <edge id=":258965262_1" function="internal">
        <lane id=":258965262_1_0" index="0" disallow="tram rail_urban rail rail_electric rail_fast ship" speed="6.86" length="10.14" shape="760.73,1422.53 758.70,1421.88 757.34,1420.32 756.65,1417.86 756.63,1414.48"/>
    </edge>
    <edge id=":258965262_2" function="internal">
        <lane id=":258965262_2_0" index="0" disallow="tram rail_urban rail rail_electric rail_fast ship" speed="3.65" length="4.67" shape="760.73,1422.53 759.60,1421.64 759.27,1420.81 759.73,1420.04 760.99,1419.34"/>
    </edge>
    <edge id=":258965262_3" function="internal">
        <lane id=":258965262_3_0" index="0" disallow="tram rail_urban rail rail_electric rail_fast ship" speed="5.71" length="6.70" shape="749.29,1418.39 750.97,1418.25 752.22,1417.50 753.04,1416.16 753.44,1414.22"/>
    </edge>
    <edge id=":258965262_4" function="internal">
        <lane id=":258965262_4_0" index="0" disallow="tram rail_urban rail rail_electric rail_fast ship" speed="13.89" length="11.75" shape="749.29,1418.39 760.99,1419.34"/>
    </edge>
    <edge id=":258965262_5" function="internal">
        <lane id=":258965262_5_0" index="0" disallow="tram rail_urban rail rail_electric rail_fast ship" speed="3.65" length="4.67" shape="749.29,1418.39 750.42,1419.29 750.75,1420.12 750.29,1420.88 749.03,1421.58"/>
    </edge>
    <edge id=":258965262_6" function="internal">
        <lane id=":258965262_6_0" index="0" disallow="tram rail_urban rail rail_electric rail_fast ship" speed="5.50" length="6.20" shape="750.75,1427.00 750.81,1424.69 750.55,1423.02 749.96,1421.99 749.03,1421.58"/>
    </edge>
    <edge id=":258965262_7" function="internal">
        <lane id=":258965262_7_0" index="0" disallow="tram rail_urban rail rail_electric rail_fast ship" speed="13.41" length="13.10" shape="750.75,1427.00 751.34,1423.17 752.11,1420.61 752.87,1418.05 753.44,1414.22"/>
        <lane id=":258965262_7_1" index="1" disallow="tram rail_urban rail rail_electric rail_fast ship" speed="13.41" length="13.10" shape="753.94,1427.28 754.52,1423.44 755.30,1420.88 756.06,1418.31 756.63,1414.48"/>
    </edge>
    <edge id=":258965262_9" function="internal">
        <lane id=":258965262_9_0" index="0" disallow="tram rail_urban rail rail_electric rail_fast ship" speed="6.76" length="9.80" shape="757.13,1427.55 757.65,1423.87 758.46,1421.27 759.58,1419.76 760.99,1419.34"/>
    </edge>
    <edge id=":258965263_0" function="internal">
        <lane id=":258965263_0_0" index="0" disallow="tram rail_urban rail rail_electric rail_fast ship" speed="13.89" length="10.10" shape="749.20,1563.92 739.14,1562.96"/>
    </edge>
    <edge id=":258965263_1" function="internal">
        <lane id=":258965263_1_0" index="0" disallow="tram rail_urban rail rail_electric rail_fast ship" speed="6.60" length="9.02" shape="749.20,1563.92 747.97,1563.30 747.16,1561.76 746.78,1559.28 746.82,1555.88"/>
    </edge>
    <edge id=":258965263_2" function="internal">
        <lane id=":258965263_2_0" index="0" disallow="tram rail_urban rail rail_electric rail_fast ship" speed="3.65" length="4.67" shape="749.20,1563.92 748.09,1563.00 747.77,1562.16 748.26,1561.41 749.53,1560.74"/>
    </edge>
    <edge id=":258965263_3" function="internal">
        <lane id=":258965263_3_0" index="0" disallow="tram rail_urban rail rail_electric rail_fast ship" speed="5.68" length="6.73" shape="739.42,1559.77 741.15,1559.64 742.43,1558.92 743.26,1557.59 743.63,1555.67"/>
    </edge>
    <edge id=":258965263_4" function="internal">
        <lane id=":258965263_4_0" index="0" disallow="tram rail_urban rail rail_electric rail_fast ship" speed="13.89" length="10.17" shape="739.42,1559.77 749.53,1560.74"/>
    </edge>
    <edge id=":258965263_5" function="internal">
        <lane id=":258965263_5_0" index="0" disallow="tram rail_urban rail rail_electric rail_fast ship" speed="3.65" length="4.67" shape="739.42,1559.77 740.54,1560.67 740.87,1561.50 740.40,1562.27 739.14,1562.96"/>
    </edge>
    <edge id=":258965263_6" function="internal">
        <lane id=":258965263_6_0" index="0" disallow="tram rail_urban rail rail_electric rail_fast ship" speed="6.18" length="7.70" shape="743.02,1568.63 742.84,1566.28 742.13,1564.55 740.90,1563.45 739.14,1562.96"/>
    </edge>
    <edge id=":258965263_7" function="internal">
        <lane id=":258965263_7_0" index="0" disallow="tram rail_urban rail rail_electric rail_fast ship" speed="13.41" length="12.92" shape="743.02,1568.63 743.63,1555.67"/>
        <lane id=":258965263_7_1" index="1" disallow="tram rail_urban rail rail_electric rail_fast ship" speed="13.41" length="12.92" shape="746.22,1568.73 746.82,1555.88"/>
    </edge>
    <edge id=":259394420_0" function="internal">
        <lane id=":259394420_0_0" index="0" allow="private emergency authority army vip passenger hov taxi bus coach delivery truck trailer motorcycle evehicle custom1 custom2" speed="22.22" length="0.24" shape="433.50,1667.19 433.47,1667.49"/>
        <lane id=":259394420_0_1" index="1" allow="private emergency authority army vip passenger hov taxi bus coach delivery truck trailer motorcycle evehicle custom1 custom2" speed="22.22" length="0.24" shape="430.30,1666.99 430.29,1667.17"/>
    </edge>
    <edge id=":259394878_0" function="internal">
        <lane id=":259394878_0_0" index="0" allow="private emergency authority army vip passenger hov taxi bus coach delivery truck trailer motorcycle evehicle custom1 custom2" speed="30.83" length="6.66" shape="433.37,1500.18 433.29,1502.14 433.41,1503.48 433.67,1504.82 434.03,1506.77"/>
    </edge>
    <edge id=":259394878_1" function="internal">
        <lane id=":259394878_1_0" index="0" allow="private emergency authority army vip passenger hov taxi bus coach delivery truck trailer motorcycle evehicle custom1 custom2" speed="39.44" length="6.86" shape="430.18,1499.93 430.16,1501.99 430.36,1503.40 430.54,1504.81 430.46,1506.86"/>
        <lane id=":259394878_1_1" index="1" allow="private emergency authority army vip passenger hov taxi bus coach delivery truck trailer motorcycle evehicle custom1 custom2" speed="39.44" length="6.86" shape="426.99,1499.69 426.97,1501.72 427.17,1503.11 427.35,1504.50 427.28,1506.52"/>
        <lane id=":259394878_1_2" index="2" allow="private emergency authority army vip passenger hov taxi bus coach delivery truck trailer motorcycle evehicle custom1 custom2" speed="39.44" length="6.86" shape="423.80,1499.45 423.79,1501.44 423.99,1502.81 424.17,1504.18 424.10,1506.17"/>
    </edge>
    <edge id=":259394879_0" function="internal">
        <lane id=":259394879_0_0" index="0" allow="private emergency authority army vip passenger hov taxi bus coach delivery truck trailer motorcycle evehicle custom1 custom2" speed="39.44" length="0.30" shape="410.59,1717.94 410.55,1718.34"/>
        <lane id=":259394879_0_1" index="1" allow="private emergency authority army vip passenger hov taxi bus coach delivery truck trailer motorcycle evehicle custom1 custom2" speed="39.44" length="0.30" shape="407.40,1717.68 407.37,1717.99"/>
        <lane id=":259394879_0_2" index="2" allow="private emergency authority army vip passenger hov taxi bus coach delivery truck trailer motorcycle evehicle custom1 custom2" speed="39.44" length="0.30" shape="404.21,1717.42 404.19,1717.63"/>
    </edge>
    <edge id=":293752603_0" function="internal">
        <lane id=":293752603_0_0" index="0" disallow="tram rail_urban rail rail_electric rail_fast ship" speed="13.89" length="0.31" shape="386.31,1392.52 386.00,1392.50"/>
    </edge>
    <edge id=":293752603_1" function="internal">
        <lane id=":293752603_1_0" index="0" disallow="tram rail_urban rail rail_electric rail_fast ship" speed="13.89" length="0.29" shape="386.24,1389.31 386.53,1389.33"/>
    </edge>
    <edge id=":297276075_0" function="internal">
        <lane id=":297276075_0_0" index="0" disallow="tram rail_urban rail rail_electric rail_fast ship" speed="27.78" length="8.02" shape="367.41,1674.67 359.41,1674.06"/>
    </edge>
    <edge id=":297276075_1" function="internal">
        <lane id=":297276075_1_0" index="0" disallow="tram rail_urban rail rail_electric rail_fast ship" speed="27.78" length="8.38" shape="359.67,1670.87 362.15,1670.57 363.76,1669.59 365.37,1668.61 367.85,1668.28"/>
        <lane id=":297276075_1_1" index="1" disallow="tram rail_urban rail rail_electric rail_fast ship" speed="27.78" length="8.38" shape="359.67,1670.87 367.63,1671.47"/>
    </edge>
    <edge id=":317123402_0" function="internal">
        <lane id=":317123402_0_0" index="0" disallow="tram rail_urban rail rail_electric rail_fast ship" speed="13.89" length="0.30" shape="505.87,1688.99 505.57,1688.96"/>
        <lane id=":317123402_0_1" index="1" disallow="tram rail_urban rail rail_electric rail_fast ship" speed="13.89" length="0.30" shape="506.13,1685.80 505.83,1685.77"/>
    </edge>
    <edge id=":317123402_2" function="internal">
        <lane id=":317123402_2_0" index="0" disallow="tram rail_urban rail rail_electric rail_fast ship" speed="13.89" length="0.30" shape="506.35,1679.39 506.65,1679.42"/>
        <lane id=":317123402_2_1" index="1" disallow="tram rail_urban rail rail_electric rail_fast ship" speed="13.89" length="0.30" shape="506.09,1682.58 506.39,1682.61"/>
    </edge>
    <edge id=":466244863_0" function="internal">
        <lane id=":466244863_0_0" index="0" allow="rail" speed="25.70" length="0.30" shape="372.09,1743.37 372.11,1743.08"/>
    </edge>
    <edge id=":4675820435_0" function="internal">
        <lane id=":4675820435_0_0" index="0" disallow="tram rail_urban rail rail_electric rail_fast ship" speed="13.89" length="2.07" shape="751.46,1564.12 749.39,1563.94"/>
    </edge>
    <edge id=":4675820435_1" function="internal">
        <lane id=":4675820435_1_0" index="0" disallow="tram rail_urban rail rail_electric rail_fast ship" speed="13.89" length="2.00" shape="749.73,1560.76 751.72,1560.93"/>
    </edge>
    <edge id=":4675820435_2" function="internal">
        <lane id=":4675820435_2_0" index="0" allow="rail_urban" speed="27.78" length="9.52" shape="749.66,1567.13 750.21,1557.62"/>
    </edge>
    <edge id=":4675820436_0" function="internal">
        <lane id=":4675820436_0_0" index="0" disallow="tram rail_urban rail rail_electric rail_fast ship" speed="13.89" length="2.03" shape="753.68,1564.31 751.66,1564.14"/>
    </edge>
    <edge id=":4675820436_1" function="internal">
        <lane id=":4675820436_1_0" index="0" allow="rail_urban" speed="27.78" length="9.46" shape="753.75,1557.98 753.16,1567.42"/>
    </edge>
    <edge id=":4675820436_2" function="internal">
        <lane id=":4675820436_2_0" index="0" disallow="tram rail_urban rail rail_electric rail_fast ship" speed="13.89" length="2.01" shape="751.92,1560.95 753.93,1561.12"/>
    </edge>
    <edge id=":4719395990_0" function="internal">
        <lane id=":4719395990_0_0" index="0" disallow="tram rail_urban rail rail_electric rail_fast ship" speed="13.89" length="2.49" shape="766.06,1422.88 763.57,1422.72"/>
    </edge>
    <edge id=":4719395990_1" function="internal">
        <lane id=":4719395990_1_0" index="0" allow="rail_urban" speed="27.78" length="9.44" shape="765.60,1416.51 765.09,1425.94"/>
    </edge>
    <edge id=":4719395990_2" function="internal">
        <lane id=":4719395990_2_0" index="0" disallow="tram rail_urban rail rail_electric rail_fast ship" speed="13.89" length="2.55" shape="763.76,1419.53 766.31,1419.69"/>
    </edge>
    <edge id=":4719395991_0" function="internal">
        <lane id=":4719395991_0_0" index="0" disallow="tram rail_urban rail rail_electric rail_fast ship" speed="13.89" length="2.45" shape="763.37,1422.71 760.93,1422.55"/>
    </edge>
    <edge id=":4719395991_1" function="internal">
        <lane id=":4719395991_1_0" index="0" disallow="tram rail_urban rail rail_electric rail_fast ship" speed="13.89" length="2.37" shape="761.19,1419.36 763.56,1419.51"/>
    </edge>
    <edge id=":4719395991_2" function="internal">
        <lane id=":4719395991_2_0" index="0" allow="rail_urban" speed="27.78" length="9.42" shape="761.49,1425.70 762.09,1416.30"/>
    </edge>
    <edge id=":4719395992_0" function="internal">
        <lane id=":4719395992_0_0" index="0" disallow="tram rail_urban rail rail_electric rail_fast ship" speed="13.89" length="2.10" shape="748.27,1706.15 746.18,1705.99"/>
    </edge>