<?xml version="1.0" encoding="UTF-8"?>

<routes xmlns:xsi="http://www.w3.org/2001/XMLSchema-instance" xsi:noNamespaceSchemaLocation="http://sumo.dlr.de/xsd/routes_file.xsd">
    <vType id="car" vClass="passenger" length="5" accel="3.5" decel="2.2" sigma="1.0"/>
    <flow id="carflow" type="car" begin="0" end="0" number="5" from="edge1" to="edge2"/>

    <vType id="car_modify" vClass="passenger" length="5" accel="3.5" decel="2.2" sigma="1.0" color="red"/>
    <flow id="car_modifyflow" type="car_modify" begin="0" end="0" number="3" from="edge1" to="edge2"/>

</routes>
