<?xml version="1.0" encoding="UTF-8"?>

<!-- generated on 2022-09-29 09:01:33 by Eclipse SUMO netedit Version 1.14.1
<configuration xmlns:xsi="http://www.w3.org/2001/XMLSchema-instance" xsi:noNamespaceSchemaLocation="http://sumo.dlr.de/xsd/netconvertConfiguration.xsd">

    <input>
        <sumo-net-file value="C:\Users\Giuseppe\Desktop\Sumo%20Tutorials\Tutorial%203\circles.net.xml"/>
    </input>

    <output>
        <output-file value="C:\Users\Giuseppe\Desktop\Sumo%20Tutorials\Tutorial%203\circles.net.xml"/>
    </output>

    <processing>
        <geometry.min-radius.fix.railways value="false"/>
        <geometry.max-grade.fix value="false"/>
        <offset.disable-normalization value="true"/>
        <lefthand value="false"/>
    </processing>

    <junctions>
        <no-turnarounds value="true"/>
        <junctions.corner-detail value="5"/>
        <junctions.limit-turn-speed value="5.5"/>
        <rectangular-lane-cut value="false"/>
    </junctions>

    <pedestrian>
        <walkingareas value="false"/>
    </pedestrian>

</configuration>
-->

<net version="1.9" junctionCornerDetail="5" limitTurnSpeed="5.50" xmlns:xsi="http://www.w3.org/2001/XMLSchema-instance" xsi:noNamespaceSchemaLocation="http://sumo.dlr.de/xsd/net_file.xsd">

    <location netOffset="0.00,0.00" convBoundary="14.64,23.74,83.98,91.87" origBoundary="-10000000000.00,-10000000000.00,10000000000.00,10000000000.00" projParameter="!"/>

    <edge id=":J10_0" function="internal">
        <lane id=":J10_0_0" index="0" speed="4.15" length="1.35" shape="23.20,40.48 22.91,40.67 22.68,40.90 22.51,41.18 22.40,41.51"/>
    </edge>
    <edge id=":J11_0" function="internal">
        <lane id=":J11_0_0" index="0" speed="4.17" length="1.30" shape="16.53,64.99 16.48,65.32 16.49,65.64 16.58,65.94 16.73,66.24"/>
    </edge>
    <edge id=":J2_0" function="internal">
        <lane id=":J2_0_0" index="0" speed="4.03" length="1.63" shape="31.57,89.51 31.84,89.83 32.15,90.07 32.52,90.20 32.94,90.24"/>
    </edge>
    <edge id=":J3_0" function="internal">
        <lane id=":J3_0_0" index="0" speed="4.06" length="1.56" shape="65.82,89.77 66.22,89.73 66.57,89.59 66.87,89.37 67.13,89.06"/>
    </edge>
    <edge id=":J4_0" function="internal">
        <lane id=":J4_0_0" index="0" speed="4.31" length="1.16" shape="81.99,66.62 82.17,66.33 82.26,66.11 82.28,65.87 82.24,65.53"/>
    </edge>
    <edge id=":J8_0" function="internal">
        <lane id=":J8_0_0" index="0" speed="4.06" length="1.55" shape="79.07,40.55 78.98,40.16 78.81,39.83 78.55,39.55 78.22,39.33"/>
    </edge>
    <edge id=":J9_0" function="internal">
        <lane id=":J9_0_0" index="0" speed="4.06" length="1.54" shape="52.26,25.93 51.89,25.78 51.52,25.74 51.15,25.79 50.78,25.93"/>
    </edge>

    <edge id="edge1" from="J2" to="J3" priority="-1">
        <lane id="edge1_0" index="0" speed="13.89" length="32.88" shape="32.94,90.24 65.82,89.77"/>
    </edge>
    <edge id="edge2" from="J3" to="J4" priority="-1">
        <lane id="edge2_0" index="0" speed="13.89" length="26.92" shape="67.13,89.06 81.99,66.62"/>
    </edge>
    <edge id="edge3" from="J4" to="J8" priority="-1">
        <lane id="edge3_0" index="0" speed="13.89" length="25.18" shape="82.24,65.53 79.07,40.55"/>
    </edge>
    <edge id="edge4" from="J8" to="J9" priority="-1">
        <lane id="edge4_0" index="0" speed="13.89" length="29.22" shape="78.22,39.33 52.26,25.93"/>
    </edge>
    <edge id="edge5" from="J9" to="J10" priority="-1">
        <lane id="edge5_0" index="0" speed="13.89" length="31.18" shape="50.78,25.93 23.20,40.48"/>
    </edge>
    <edge id="edge6" from="J10" to="J11" priority="-1">
        <lane id="edge6_0" index="0" speed="13.89" length="24.21" shape="22.40,41.51 16.53,64.99"/>
    </edge>
    <edge id="edge7" from="J11" to="J2" priority="-1">
        <lane id="edge7_0" index="0" speed="13.89" length="27.59" shape="16.73,66.24 31.57,89.51"/>
    </edge>

    <junction id="J10" type="priority" x="21.19" y="39.73" incLanes="edge5_0" intLanes=":J10_0_0" shape="23.95,41.89 22.46,39.06 21.71,39.59 21.42,39.91 21.18,40.27 20.98,40.68 20.84,41.12">
        <request index="0" response="0" foes="0" cont="0"/>
    </junction>
    <junction id="J11" type="priority" x="14.64" y="65.94" incLanes="edge6_0" intLanes=":J11_0_0" shape="15.38,67.10 18.08,65.38 14.97,64.60 14.87,65.48 14.91,65.90 15.01,66.31 15.16,66.71">
        <request index="0" response="0" foes="0" cont="0"/>
    </junction>
    <junction id="J2" type="priority" x="31.18" y="91.87" incLanes="edge7_0" intLanes=":J2_0_0" shape="32.96,91.84 32.92,88.64 30.22,90.37 30.95,91.20 31.39,91.49 31.87,91.69 32.39,91.81">
        <request index="0" response="0" foes="0" cont="0"/>
    </junction>
    <junction id="J3" type="priority" x="67.53" y="91.35" incLanes="edge1_0" intLanes=":J3_0_0" shape="68.46,89.94 65.79,88.17 65.84,91.37 66.88,91.20 67.34,91.00 67.76,90.73 68.13,90.37">
        <request index="0" response="0" foes="0" cont="0"/>
    </junction>
    <junction id="J4" type="priority" x="83.98" y="66.51" incLanes="edge2_0" intLanes=":J4_0_0" shape="83.83,65.33 80.66,65.73 83.32,67.50 83.76,66.77 83.86,66.48 83.90,66.18 83.88,65.81">
        <request index="0" response="0" foes="0" cont="0"/>
    </junction>
    <junction id="J8" type="priority" x="80.45" y="38.68" incLanes="edge3_0" intLanes=":J8_0_0" shape="77.49,40.75 80.66,40.35 80.38,39.34 80.13,38.90 79.81,38.52 79.42,38.19 78.96,37.91">
        <request index="0" response="0" foes="0" cont="0"/>
    </junction>
    <junction id="J9" type="priority" x="51.51" y="23.74" incLanes="edge4_0" intLanes=":J9_0_0" shape="51.53,27.35 52.99,24.51 52.01,24.17 51.51,24.13 51.02,24.17 50.53,24.30 50.03,24.52">
        <request index="0" response="0" foes="0" cont="0"/>
    </junction>

    <connection from="edge1" to="edge2" fromLane="0" toLane="0" via=":J3_0_0" dir="r" state="M"/>
    <connection from="edge2" to="edge3" fromLane="0" toLane="0" via=":J4_0_0" dir="s" state="M"/>
    <connection from="edge3" to="edge4" fromLane="0" toLane="0" via=":J8_0_0" dir="r" state="M"/>
    <connection from="edge4" to="edge5" fromLane="0" toLane="0" via=":J9_0_0" dir="r" state="M"/>
    <connection from="edge5" to="edge6" fromLane="0" toLane="0" via=":J10_0_0" dir="r" state="M"/>
    <connection from="edge6" to="edge7" fromLane="0" toLane="0" via=":J11_0_0" dir="r" state="M"/>
    <connection from="edge7" to="edge1" fromLane="0" toLane="0" via=":J2_0_0" dir="r" state="M"/>

    <connection from=":J10_0" to="edge6" fromLane="0" toLane="0" dir="r" state="M"/>
    <connection from=":J11_0" to="edge7" fromLane="0" toLane="0" dir="r" state="M"/>
    <connection from=":J2_0" to="edge1" fromLane="0" toLane="0" dir="r" state="M"/>
    <connection from=":J3_0" to="edge2" fromLane="0" toLane="0" dir="r" state="M"/>
    <connection from=":J4_0" to="edge3" fromLane="0" toLane="0" dir="s" state="M"/>
    <connection from=":J8_0" to="edge4" fromLane="0" toLane="0" dir="r" state="M"/>
    <connection from=":J9_0" to="edge5" fromLane="0" toLane="0" dir="r" state="M"/>

</net>
