<?xml version="1.0" encoding="UTF-8"?>

<routes xmlns:xsi="http://www.w3.org/2001/XMLSchema-instance" xsi:noNamespaceSchemaLocation="http://sumo.dlr.de/xsd/routes_file.xsd">
   

    <!-- COMMAND:   createVehTypeDistribution.py -o additional.add.xml -ncar -s 3 conf_passenger.txt    -->
    <!-- COMMAND:   createVehTypeDistribution.py -o additional.add.xml -nbus -s 1 conf_bus.txt          -->
    
    <flow id="car0_flow" type="car0" begin="0.00" end="0.00" number="10" color="yellow" from="entry" to="exit" departSpeed="avg" departLane="best"/>
    <flow id="car1_flow" type="car1" begin="0.00" end="0.00" number="5" color="red" from="entry" to="exit" departSpeed="avg" departLane="best" />
    <flow id="car2_flow" type="car2" begin="0.00" end="0.00" number="3" color="green" from="entry" to="exit" departSpeed="avg" departLane="best"/>
    
    <flow id="bus0_flow" type="bus0" begin="0.00" end="0.00" number="3" color="blue" from="entry" to="exit" departSpeed="avg" departLane="best" />


</routes>