<?xml version="1.0" encoding="UTF-8"?>

<configuration xmlns:xsi="http://www.w3.org/2001/XMLSchema-instance" xsi:noNamespaceSchemaLocation="http://sumo.dlr.de/xsd/sumoConfiguration.xsd">
<input>
       <net-file value="../Test - createVehTypeDistribution/network.net.xml"/>
       <route-files value="../Test - createVehTypeDistribution/elem.rou.xml"/>
       <additional-files value="../Test - createVehTypeDistribution/additional.add.xml"/>
       <gui-settings-file value="../Test - createVehTypeDistribution/viewsetting.view.xml"/>
</input>
</configuration>