<?xml version="1.0" encoding="UTF-8"?>

<routes xmlns:xsi="http://www.w3.org/2001/XMLSchema-instance" xsi:noNamespaceSchemaLocation="http://sumo.dlr.de/xsd/routes_file.xsd">
    <vType id = "car" vClass="passenger" length="5" accel="3.5" decel="2.2" sigma="1.0" maxSpeed="10"/>
    <vType id = "ev" vClass="emergency" length="7" accel="5.5" decel="2.2" sigma="1.0" maxSpeed="20" guiShape="emergency" speedFactor="2.0" minGapLat="0.2" />

    <route id="route0" edges="E1 E2 E3 E4 E5 E6 E7 E8"/>

    <!--<vehicle id="0" type="car" route="route0" depart="0" />-->
    <flow id="carflow" type="car" begin="0" end="0" number="5" from="E1" to="E8" />
    <flow id="evflow" type="ev" begin="0" end="0" number="1" from="E1" to="E8" />

</routes>