<?xml version='1.0' encoding='utf-8'?>
<routes>
  <trip id="2404" trip_type="on" type="on" color="1,1,0" from_taz="" to_taz="16" stat="into" flag="True" from="84823308" to="-33789567" direction="into" depart="18000" end="19800">
    <stop parkingArea="parkingArea_225853134_0_679" duration="1197"/>
  </trip>
  <trip id="3302" trip_type="on" type="on" color="1,1,0" from_taz="" to_taz="42" stat="into" flag="True" from="31129765" to="8922291#0" direction="into" depart="18000" end="21900">
    <stop parkingArea="parkingArea_255168047#3_0_541" duration="3254"/>
  </trip>
  <trip id="3770" trip_type="off" type="off" color="1,1,0" from_taz="" to_taz="8" stat="into" flag="True" from="142972028#1" to="283537380#0" direction="into" depart="18000" end="43380">
    <stop parkingArea="parkingArea_120256350#8_0_45" duration="19748"/>
  </trip>
  <trip id="4055" trip_type="on" type="on" color="1,1,0" from_taz="" to_taz="8" stat="into" flag="True" from="-133781749" to="-27397692" direction="into" depart="18000" end="19800">
    <stop parkingArea="parkingArea_254299142#3_0_508" duration="1544"/>
  </trip>
  <trip id="4181" trip_type="on" type="on" color="1,1,0" from_taz="" to_taz="8" stat="into" flag="True" from="142972028#1" to="8916922#1" direction="into" depart="18000" end="19800">
    <stop parkingArea="parkingArea_120256350#8_0_388" duration="1166"/>
  </trip>
  <trip id="4802" trip_type="off" type="off" color="1,1,0" from_taz="" to_taz="8" stat="into" flag="True" from="-23883760" to="283537380#1" direction="into" depart="18000" end="48000">
    <stop parkingArea="parkingArea_47172745_0_65" duration="22800"/>
  </trip>
  <trip id="4888" trip_type="off" type="off" color="1,1,0" from_taz="" to_taz="8" stat="into" flag="True" from="225806031#0" to="8922307" direction="into" depart="18000" end="53820">
    <stop parkingArea="parkingArea_27397919_0_66" duration="28973"/>
  </trip>
  <trip id="5221" trip_type="on" type="on" color="1,1,0" from_taz="" to_taz="17" stat="into" flag="True" from="224384035#0" to="8921849#2" direction="into" depart="18000" end="19800">
    <stop parkingArea="parkingArea_191296172#0_0_955" duration="1375"/>
  </trip>
  <trip id="5355" trip_type="off" type="off" color="1,1,0" from_taz="" to_taz="44" stat="into" flag="True" from="31129765" to="30831808#0" direction="into" depart="18000" end="57720">
    <stop parkingArea="parkingArea_-27571801_0_50" duration="32520"/>
  </trip>
  <trip id="5398" trip_type="on" type="on" color="1,1,0" from_taz="" to_taz="33" stat="into" flag="True" from="23959829#0" to="143617589#0" direction="into" depart="18000" end="19800">
    <stop parkingArea="parkingArea_143617585#2_0_759" duration="1152"/>
  </trip>
  <trip id="6422" trip_type="off" type="off" color="1,1,0" from_taz="" to_taz="8" stat="into" flag="True" from="90077241" to="91181771#0" direction="into" depart="18000" end="43980">
    <stop parkingArea="parkingArea_91181771#0_0_77" duration="20937"/>
  </trip>
  <trip id="6466" trip_type="off" type="off" color="1,1,0" from_taz="" to_taz="8" stat="into" flag="True" from="225806031#0" to="99231482" direction="into" depart="18000" end="36060">
    <stop parkingArea="parkingArea_254299142#3_0_103" duration="12822"/>
  </trip>
  <trip id="6644" trip_type="off" type="off" color="1,1,0" from_taz="" to_taz="8" stat="into" flag="True" from="-23883761" to="364480601#0" direction="into" depart="18000" end="33360">
    <stop parkingArea="parkingArea_225518502#0_0_84" duration="13184"/>
  </trip>
  <trip id="6953" trip_type="off" type="off" color="1,1,0" from_taz="" to_taz="8" stat="into" flag="True" from="90077241" to="91181771#5" direction="into" depart="18000" end="75480">
    <stop parkingArea="parkingArea_27397919_0_66" duration="50280"/>
  </trip>
  <trip id="7473" trip_type="off" type="off" color="1,1,0" from_taz="" to_taz="8" stat="into" flag="True" from="8916767#0" to="8915752" direction="into" depart="18000" end="43680">
    <stop parkingArea="parkingArea_254299142#3_0_103" duration="20276"/>
  </trip>
  <trip id="7871" trip_type="off" type="off" color="1,1,0" from_taz="" to_taz="8" stat="into" flag="True" from="-24310636#2" to="254299142#3" direction="into" depart="18000" end="29520">
    <stop parkingArea="parkingArea_8918460#0_0_56" duration="7109"/>
  </trip>
  <trip id="7877" trip_type="off" type="off" color="1,1,0" from_taz="" to_taz="8" stat="into" flag="True" from="90077241" to="-225518512#1" direction="into" depart="18000" end="62700">
    <stop parkingArea="parkingArea_8922307_0_62" duration="37500"/>
  </trip>
  <trip id="7879" trip_type="off" type="off" color="1,1,0" from_taz="" to_taz="8" stat="into" flag="True" from="224384035#0" to="225518512#0" direction="into" depart="18000" end="51900">
    <stop parkingArea="parkingArea_47172745_0_65" duration="26700"/>
  </trip>
  <trip id="7891" trip_type="off" type="off" color="1,1,0" from_taz="" to_taz="8" stat="into" flag="True" from="8916792" to="8916922#0" direction="into" depart="18000" end="65520">
    <stop parkingArea="parkingArea_-225432462#1_0_61" duration="40320"/>
  </trip>
  <trip id="8247" trip_type="off" type="off" color="1,1,0" from_taz="" to_taz="8" stat="into" flag="True" from="254396707#6" to="47172745" direction="into" depart="18000" end="43380">
    <stop parkingArea="parkingArea_-p4#0_0_102" duration="22342"/>
  </trip>
  <trip id="8275" trip_type="on" type="on" color="1,1,0" from_taz="" to_taz="8" stat="into" flag="True" from="123867455" to="91181771#5" direction="into" depart="18000" end="21900">
    <stop parkingArea="parkingArea_27397691_0_443" duration="2794"/>
  </trip>
  <trip id="8619" trip_type="on" type="on" color="1,1,0" from_taz="" to_taz="8" stat="into" flag="True" from="27167762" to="35675861#1" direction="into" depart="18000" end="19800">
    <stop parkingArea="parkingArea_27397692_0_396" duration="1204"/>
  </trip>
  <trip id="9132" trip_type="off" type="off" color="1,1,0" from_taz="" to_taz="8" stat="into" flag="True" from="27398045#1" to="8916922#1" direction="into" depart="18000" end="47100">
    <stop parkingArea="parkingArea_120256350#3_0_52" duration="21900"/>
  </trip>
  <trip id="9774" trip_type="off" type="off" color="1,1,0" from_taz="" to_taz="8" stat="into" flag="True" from="133733582#2" to="8919338" direction="into" depart="18000" end="32640">
    <stop parkingArea="parkingArea_91181770#0_0_81" duration="10193"/>
  </trip>
  <trip id="9905" trip_type="off" type="off" color="1,1,0" from_taz="" to_taz="8" stat="into" flag="True" from="123867455" to="p4#0" direction="into" depart="18000" end="39780">
    <stop parkingArea="parkingArea_8918460#0_0_56" duration="16499"/>
  </trip>
  <trip id="10444" trip_type="off" type="off" color="1,1,0" from_taz="" to_taz="8" stat="into" flag="True" from="-23883761" to="99231468#0" direction="into" depart="18000" end="36900">
    <stop parkingArea="parkingArea_254299142#3_0_103" duration="12867"/>
  </trip>
  <trip id="10775" trip_type="off" type="off" color="1,1,0" from_taz="" to_taz="43" stat="into" flag="True" from="-24310636#2" to="27054213#6" direction="into" depart="18000" end="40140">
    <stop parkingArea="parkingArea_-287958606#1_0_355" duration="14940"/>
  </trip>
  <trip id="11119" trip_type="off" type="off" color="1,1,0" from_taz="" to_taz="40" stat="into" flag="True" from="-8916048" to="179235223" direction="into" depart="18000" end="40500">
    <stop parkingArea="parkingArea_27397927_0_42" duration="15300"/>
  </trip>
  <trip id="11317" trip_type="off" type="off" color="1,1,0" from_taz="" to_taz="40" stat="into" flag="True" from="90077241" to="-8919616#1" direction="into" depart="18000" end="40620">
    <stop parkingArea="parkingArea_27397927_0_42" duration="15420"/>
  </trip>
  <trip id="11337" trip_type="off" type="off" color="1,1,0" from_taz="" to_taz="4" stat="into" flag="True" from="-35977367#2" to="224199014#0" direction="into" depart="18000" end="43620">
    <stop parkingArea="parkingArea_8919179#0_0_356" duration="20334"/>
  </trip>
  <trip id="11567" trip_type="off" type="off" color="1,1,0" from_taz="23" to_taz="" stat="out" flag="True" from="-91181760#0" to="206662304#13" direction="out" depart="18000" end="32460"/>
  <trip id="11582" trip_type="on" type="on" color="1,1,0" from_taz="" to_taz="17" stat="into" flag="True" from="123867455" to="111089307#4" direction="into" depart="18000" end="19800">
    <stop parkingArea="parkingArea_-191296172#2_0_950" duration="1216"/>
  </trip>
  <trip id="11994" trip_type="off" type="off" color="1,1,0" from_taz="" to_taz="4" stat="into" flag="True" from="84823308" to="32931798#1" direction="into" depart="18000" end="36180">
    <stop parkingArea="parkingArea_8919179#0_0_356" duration="10989"/>
  </trip>
  <trip id="12781" trip_type="off" type="off" color="1,1,0" from_taz="" to_taz="32" stat="into" flag="True" from="144489137#0" to="224316522#0" direction="into" depart="18000" end="39060">
    <stop parkingArea="parkingArea_254306572#0_0_247" duration="16187"/>
  </trip>
  <trip id="13861" trip_type="off" type="off" color="1,1,0" from_taz="" to_taz="32" stat="into" flag="True" from="-133755930#1" to="133733593#1" direction="into" depart="18000" end="50520">
    <stop parkingArea="parkingArea_-224384018_0_73" duration="26420"/>
  </trip>
  <trip id="14823" trip_type="off" type="off" color="1,1,0" from_taz="" to_taz="4" stat="into" flag="True" from="191296172#0" to="47108420#4" direction="into" depart="18000" end="57720">
    <stop parkingArea="parkingArea_27398048#2_0_237" duration="32520"/>
  </trip>
  <trip id="15519" trip_type="off" type="off" color="1,1,0" from_taz="" to_taz="40" stat="into" flag="True" from="123867455" to="255330036#11" direction="into" depart="18000" end="55680">
    <stop parkingArea="parkingArea_255330036#13_0_94" duration="30480"/>
  </trip>
  <trip id="15834" trip_type="off" type="off" color="1,1,0" from_taz="" to_taz="8" stat="into" flag="True" from="27398045#1" to="-225518512#1" direction="into" depart="18000" end="57000">
    <stop parkingArea="parkingArea_120256350#8_0_45" duration="31800"/>
  </trip>
  <trip id="16672" trip_type="off" type="off" color="1,1,0" from_taz="" to_taz="4" stat="into" flag="True" from="142972028#1" to="-p3#1" direction="into" depart="18000" end="85740">
    <stop parkingArea="parkingArea_283516316#6_0_223" duration="60540"/>
  </trip>
  <trip id="17642" trip_type="off" type="off" color="1,1,0" from_taz="" to_taz="40" stat="into" flag="True" from="31129765" to="-88559661#0" direction="into" depart="18000" end="36240">
    <stop parkingArea="parkingArea_88466055#0_0_43" duration="14616"/>
  </trip>
  <trip id="18086" trip_type="on" type="on" color="1,1,0" from_taz="" to_taz="7" stat="into" flag="True" from="-206679802#4" to="-144489136" direction="into" depart="18000" end="21660">
    <stop parkingArea="parkingArea_286003244#1_0_619" duration="2734"/>
  </trip>
  <trip id="18185" trip_type="off" type="off" color="1,1,0" from_taz="" to_taz="43" stat="into" flag="True" from="144489137#0" to="88597553#2" direction="into" depart="18000" end="39720">
    <stop parkingArea="parkingArea_27054213#6_0_357" duration="19466"/>
  </trip>
  <trip id="18266" trip_type="on" type="on" color="1,1,0" from_taz="" to_taz="8" stat="into" flag="True" from="31129765" to="-99231475" direction="into" depart="18000" end="22200">
    <stop parkingArea="parkingArea_91181771#0_0_432" duration="3458"/>
  </trip>
  <trip id="18330" trip_type="off" type="off" color="1,1,0" from_taz="" to_taz="16" stat="into" flag="True" from="123867455" to="26988030#2" direction="into" depart="18000" end="79320">
    <stop parkingArea="parkingArea_-133781759#1_0_346" duration="54120"/>
  </trip>
  <trip id="805" trip_type="on" type="on" color="1,1,0" from_taz="" to_taz="43" stat="into" flag="True" from="8915254" to="-254971068" direction="into" depart="18060" end="21720">
    <stop parkingArea="parkingArea_27054213#2_0_344" duration="2346"/>
  </trip>
  <trip id="1657" trip_type="on" type="on" color="1,1,0" from_taz="" to_taz="35" stat="into" flag="True" from="31129765" to="-43100739" direction="into" depart="18060" end="19860">
    <stop parkingArea="parkingArea_254299121#1_0_858" duration="1254"/>
  </trip>
  <trip id="3000" trip_type="on" type="on" color="1,1,0" from_taz="14" to_taz="" stat="out" flag="True" from="27388400#0" to="206662304#13" direction="out" depart="18060" end="19860"/>
  <trip id="3693" trip_type="off" type="off" color="1,1,0" from_taz="" to_taz="8" stat="into" flag="True" from="90077241" to="225432462#0" direction="into" depart="18060" end="57720">
    <stop parkingArea="parkingArea_27397692_0_57" duration="32460"/>
  </trip>
  <trip id="4185" trip_type="off" type="off" color="1,1,0" from_taz="" to_taz="8" stat="into" flag="True" from="86303763#0" to="225518512#0" direction="into" depart="18060" end="50940">
    <stop parkingArea="parkingArea_99231460_0_88" duration="25680"/>
  </trip>
  <trip id="4523" trip_type="on" type="on" color="1,1,0" from_taz="" to_taz="33" stat="into" flag="True" from="31129765" to="31129732#0" direction="into" depart="18060" end="22620">
    <stop parkingArea="parkingArea_-7373736#1_0_715" duration="3259"/>
  </trip>
  <trip id="4545" trip_type="on" type="on" color="1,1,0" from_taz="" to_taz="43" stat="into" flag="True" from="254396707#6" to="27054213#4" direction="into" depart="18060" end="21720">
    <stop parkingArea="parkingArea_254396709#0_0_357" duration="3117"/>
  </trip>
  <trip id="4845" trip_type="off" type="off" color="1,1,0" from_taz="" to_taz="8" stat="into" flag="True" from="8915254" to="8916922#3" direction="into" depart="18060" end="51180">
    <stop parkingArea="parkingArea_8918460#0_0_56" duration="25920"/>
  </trip>
  <trip id="5012" trip_type="off" type="off" color="1,1,0" from_taz="2" to_taz="" stat="out" flag="True" from="30029172#0" to="154966358" direction="out" depart="18060" end="57840"/>
  <trip id="5045" trip_type="off" type="off" color="1,1,0" from_taz="" to_taz="8" stat="into" flag="True" from="-27029200#2" to="-242896157#0" direction="into" depart="18060" end="46980">
    <stop parkingArea="parkingArea_-p4#0_0_102" duration="21720"/>
  </trip>
  <trip id="5662" trip_type="off" type="off" color="1,1,0" from_taz="" to_taz="8" stat="into" flag="True" from="-27570802#1" to="-8917425" direction="into" depart="18060" end="47220">
    <stop parkingArea="parkingArea_-p4#0_0_102" duration="21960"/>
  </trip>
  <trip id="5706" trip_type="off" type="off" color="1,1,0" from_taz="" to_taz="8" stat="into" flag="True" from="-204967525" to="8915752" direction="into" depart="18060" end="36900">
    <stop parkingArea="parkingArea_120256350#8_0_45" duration="12954"/>
  </trip>
  <trip id="6083" trip_type="off" type="off" color="1,1,0" from_taz="" to_taz="8" stat="into" flag="True" from="31129765" to="35675861#1" direction="into" depart="18060" end="54540">
    <stop parkingArea="parkingArea_47172745_0_65" duration="29280"/>
  </trip>
  <trip id="6508" trip_type="off" type="off" color="1,1,0" from_taz="" to_taz="8" stat="into" flag="True" from="111089307#0" to="8916922#0" direction="into" depart="18060" end="71400">
    <stop parkingArea="parkingArea_8918460#0_0_56" duration="46231"/>
  </trip>
  <trip id="7712" trip_type="on" type="on" color="1,1,0" from_taz="" to_taz="38" stat="into" flag="True" from="90077241" to="204884121" direction="into" depart="18060" end="22500">
    <stop parkingArea="parkingArea_277480564_0_1111" duration="3995"/>
  </trip>
  <trip id="8374" trip_type="off" type="off" color="1,1,0" from_taz="" to_taz="8" stat="into" flag="True" from="-27029200#2" to="88466052#0" direction="into" depart="18060" end="32640">
    <stop parkingArea="parkingArea_99231475_0_55" duration="9416"/>
  </trip>
  <trip id="10512" trip_type="on" type="on" color="1,1,0" from_taz="" to_taz="10" stat="into" flag="True" from="8916792" to="247966218#3" direction="into" depart="18060" end="21720">
    <stop parkingArea="parkingArea_254299118#0_0_1350" duration="2529"/>
  </trip>
  <trip id="11949" trip_type="off" type="off" color="1,1,0" from_taz="" to_taz="14" stat="into" flag="True" from="8916767#0" to="-37177689#5" direction="into" depart="18060" end="36240">
    <stop parkingArea="parkingArea_111550911#2_0_97" duration="12162"/>
  </trip>
  <trip id="12698" trip_type="on" type="on" color="1,1,0" from_taz="" to_taz="32" stat="into" flag="True" from="90077241" to="254306572#0" direction="into" depart="18060" end="19860">
    <stop parkingArea="parkingArea_254306572#0_0_372" duration="1377"/>
  </trip>
  <trip id="13227" trip_type="off" type="off" color="1,1,0" from_taz="" to_taz="43" stat="into" flag="True" from="-204967525" to="224199018#4" direction="into" depart="18060" end="36120">
    <stop parkingArea="parkingArea_287958607#2_0_249" duration="11172"/>
  </trip>
  <trip id="14079" trip_type="on" type="on" color="1,1,0" from_taz="4" to_taz="" stat="out" flag="True" from="28319343#2" to="50690291#1" direction="out" depart="18060" end="21840"/>
  <trip id="15224" trip_type="on" type="on" color="1,1,0" from_taz="" to_taz="8" stat="into" flag="True" from="-27029204" to="111319423" direction="into" depart="18060" end="22080">
    <stop parkingArea="parkingArea_254299142#3_0_508" duration="2541"/>
  </trip>
  <trip id="15712" trip_type="on" type="on" color="1,1,0" from_taz="" to_taz="34" stat="into" flag="True" from="-206662304#13" to="99231463#0" direction="into" depart="18060" end="21780">
    <stop parkingArea="parkingArea_88597563#0_0_402" duration="2565"/>
  </trip>
  <trip id="15981" trip_type="off" type="off" color="1,1,0" from_taz="" to_taz="8" stat="into" flag="True" from="-24310636#2" to="35675861#0" direction="into" depart="18060" end="44160">
    <stop parkingArea="parkingArea_88559691#4_0_101" duration="18900"/>
  </trip>
  <trip id="16753" trip_type="off" type="off" color="1,1,0" from_taz="" to_taz="8" stat="into" flag="True" from="27167762" to="35675861#0" direction="into" depart="18060" end="39000">
    <stop parkingArea="parkingArea_88463829#0_0_44" duration="14714"/>
  </trip>
  <trip id="17329" trip_type="on" type="on" color="1,1,0" from_taz="" to_taz="8" stat="into" flag="True" from="-206679802#4" to="35675861#1" direction="into" depart="18060" end="19860">
    <stop parkingArea="parkingArea_-99231475_0_428" duration="1126"/>
  </trip>
  <trip id="1720" trip_type="off" type="off" color="1,1,0" from_taz="40" to_taz="" stat="out" flag="True" from="255330036#13" to="24310636#2" direction="out" depart="18120" end="25440"/>
  <trip id="2228" trip_type="on" type="on" color="1,1,0" from_taz="14" to_taz="" stat="out" flag="True" from="52432938#0" to="50690291#1" direction="out" depart="18120" end="19920"/>
  <trip id="2380" trip_type="off" type="off" color="1,1,0" from_taz="21" to_taz="" stat="out" flag="True" from="224316521#3" to="91181767" direction="out" depart="18120" end="58320"/>
  <trip id="2507" trip_type="on" type="on" color="1,1,0" from_taz="" to_taz="29" stat="into" flag="True" from="-204967525" to="254758122#4" direction="into" depart="18120" end="24000">
    <stop parkingArea="parkingArea_91181767_0_670" duration="4753"/>
  </trip>
  <trip id="2648" trip_type="on" type="on" color="1,1,0" from_taz="" to_taz="16" stat="into" flag="True" from="144489137#0" to="-8918039#1" direction="into" depart="18120" end="21840">
    <stop parkingArea="parkingArea_254759928#0_0_1191" duration="2890"/>
  </trip>
  <trip id="3455" trip_type="on" type="on" color="1,1,0" from_taz="" to_taz="4" stat="into" flag="True" from="-254297762#2" to="-47108420#2" direction="into" depart="18120" end="21780">
    <stop parkingArea="parkingArea_-47108420#3_0_302" duration="3170"/>
  </trip>
  <trip id="3522" trip_type="on" type="on" color="1,1,0" from_taz="" to_taz="17" stat="into" flag="True" from="225806031#0" to="-25371463" direction="into" depart="18120" end="21840">
    <stop parkingArea="parkingArea_191296172#1_0_951" duration="2414"/>
  </trip>
  <trip id="4216" trip_type="off" type="off" color="1,1,0" from_taz="" to_taz="8" stat="into" flag="True" from="90077241" to="91181771#0" direction="into" depart="18120" end="36480">
    <stop parkingArea="parkingArea_47172745_0_65" duration="15916"/>
  </trip>
  <trip id="4563" trip_type="on" type="on" color="1,1,0" from_taz="" to_taz="34" stat="into" flag="True" from="-27570786#2" to="99231463#0" direction="into" depart="18120" end="23700">
    <stop parkingArea="parkingArea_99231463#0_0_394" duration="3892"/>
  </trip>
  <trip id="4794" trip_type="off" type="off" color="1,1,0" from_taz="" to_taz="8" stat="into" flag="True" from="-24310636#2" to="-35675861#0" direction="into" depart="18120" end="36180">
    <stop parkingArea="parkingArea_-p4#0_0_102" duration="15458"/>
  </trip>
  <trip id="4955" trip_type="off" type="off" color="1,1,0" from_taz="" to_taz="8" stat="into" flag="True" from="-23883760" to="8916922#0" direction="into" depart="18120" end="43380">
    <stop parkingArea="parkingArea_99231475_0_55" duration="18060"/>
  </trip>
  <trip id="6319" trip_type="off" type="off" color="1,1,0" from_taz="" to_taz="8" stat="into" flag="True" from="-133781749" to="88463830" direction="into" depart="18120" end="48480">
    <stop parkingArea="parkingArea_120256350#3_0_52" duration="23160"/>
  </trip>
  <trip id="6870" trip_type="on" type="on" color="1,1,0" from_taz="" to_taz="42" stat="into" flag="True" from="-133781749" to="8922858#0" direction="into" depart="18120" end="22080">
    <stop parkingArea="parkingArea_8920281#2_0_763" duration="3429"/>
  </trip>
  <trip id="7625" trip_type="off" type="off" color="1,1,0" from_taz="" to_taz="8" stat="into" flag="True" from="31129765" to="91181771#0" direction="into" depart="18120" end="64260">
    <stop parkingArea="parkingArea_254299142#3_0_103" duration="40574"/>
  </trip>
  <trip id="8771" trip_type="on" type="on" color="1,1,0" from_taz="" to_taz="8" stat="into" flag="True" from="90077241" to="24335490#0" direction="into" depart="18120" end="21960">
    <stop parkingArea="parkingArea_-27397692_0_397" duration="2703"/>
  </trip>
  <trip id="10789" trip_type="off" type="off" color="1,1,0" from_taz="" to_taz="8" stat="into" flag="True" from="90077241" to="242896157#1" direction="into" depart="18120" end="71160">
    <stop parkingArea="parkingArea_99231482_0_58" duration="45840"/>
  </trip>
  <trip id="11572" trip_type="on" type="on" color="1,1,0" from_taz="" to_taz="27" stat="into" flag="True" from="-35977367#2" to="26938124#4" direction="into" depart="18120" end="19920">
    <stop parkingArea="parkingArea_254758125#0_0_1111" duration="1605"/>
  </trip>
  <trip id="12299" trip_type="on" type="on" color="1,1,0" from_taz="" to_taz="8" stat="into" flag="True" from="254396707#6" to="99231460" direction="into" depart="18120" end="19920">
    <stop parkingArea="parkingArea_88466052#1_0_438" duration="1558"/>
  </trip>
  <trip id="12843" trip_type="off" type="off" color="1,1,0" from_taz="" to_taz="8" stat="into" flag="True" from="31129765" to="-8922307" direction="into" depart="18120" end="47340">
    <stop parkingArea="parkingArea_120256350#8_0_45" duration="22134"/>
  </trip>
  <trip id="14413" trip_type="off" type="off" color="1,1,0" from_taz="" to_taz="32" stat="into" flag="True" from="31129765" to="254306572#0" direction="into" depart="18120" end="36660">
    <stop parkingArea="parkingArea_-224384018_0_73" duration="15430"/>
  </trip>
  <trip id="14712" trip_type="on" type="on" color="1,1,0" from_taz="" to_taz="8" stat="into" flag="True" from="-254758120#3" to="8919328#0" direction="into" depart="18120" end="19920">
    <stop parkingArea="parkingArea_255168046#2_1_516" duration="1474"/>
  </trip>
  <trip id="15301" trip_type="off" type="off" color="1,1,0" from_taz="" to_taz="8" stat="into" flag="True" from="144489137#0" to="225518502#3" direction="into" depart="18120" end="62340">
    <stop parkingArea="parkingArea_120256350#3_0_52" duration="37020"/>
  </trip>
  <trip id="17297" trip_type="off" type="off" color="1,1,0" from_taz="" to_taz="4" stat="into" flag="True" from="-27167281#1" to="8922560#3" direction="into" depart="18120" end="64980">
    <stop parkingArea="parkingArea_27398048#2_0_237" duration="39660"/>
  </trip>
  <trip id="17455" trip_type="off" type="off" color="1,1,0" from_taz="37" to_taz="" stat="out" flag="True" from="-254758121#2" to="204967525" direction="out" depart="18120" end="51120"/>
  <trip id="18646" trip_type="on" type="on" color="1,1,0" from_taz="5" to_taz="" stat="out" flag="True" from="254758124#0" to="50690291#1" direction="out" depart="18120" end="21840"/>
  <trip id="2609" trip_type="on" type="on" color="1,1,0" from_taz="" to_taz="34" stat="into" flag="True" from="123867455" to="228186482#0" direction="into" depart="18180" end="19980">
    <stop parkingArea="parkingArea_88597563#0_0_402" duration="1149"/>
  </trip>
  <trip id="3457" trip_type="on" type="on" color="1,1,0" from_taz="" to_taz="38" stat="into" flag="True" from="90077241" to="-204884121" direction="into" depart="18180" end="22500">
    <stop parkingArea="parkingArea_30832507#1_0_689" duration="3608"/>
  </trip>
  <trip id="3621" trip_type="off" type="off" color="1,1,0" from_taz="" to_taz="8" stat="into" flag="True" from="142972028#1" to="-202485361#1" direction="into" depart="18180" end="67920">
    <stop parkingArea="parkingArea_88559691#4_0_101" duration="42540"/>
  </trip>
  <trip id="4061" trip_type="off" type="off" color="1,1,0" from_taz="" to_taz="8" stat="into" flag="True" from="-254297762#2" to="283537552#0" direction="into" depart="18180" end="57060">
    <stop parkingArea="parkingArea_-p4#0_0_102" duration="32712"/>
  </trip>
  <trip id="4712" trip_type="off" type="off" color="1,1,0" from_taz="" to_taz="8" stat="into" flag="True" from="-27029204" to="-88559691#6" direction="into" depart="18180" end="38880">
    <stop parkingArea="parkingArea_-p4#0_0_102" duration="17988"/>
  </trip>
  <trip id="6399" trip_type="off" type="off" color="1,1,0" from_taz="" to_taz="8" stat="into" flag="True" from="90077241" to="8916922#3" direction="into" depart="18180" end="67980">
    <stop parkingArea="parkingArea_88463829#0_0_44" duration="42600"/>
  </trip>
  <trip id="7765" trip_type="off" type="off" color="1,1,0" from_taz="" to_taz="8" stat="into" flag="True" from="224384035#0" to="120256350#3" direction="into" depart="18180" end="54780">
    <stop parkingArea="parkingArea_-8916922#4_0_52" duration="29400"/>
  </trip>
  <trip id="7801" trip_type="off" type="off" color="1,1,0" from_taz="" to_taz="8" stat="into" flag="True" from="225806031#0" to="88466052#1" direction="into" depart="18180" end="36300">
    <stop parkingArea="parkingArea_-8916922#4_0_52" duration="14962"/>
  </trip>
  <trip id="8074" trip_type="off" type="off" color="1,1,0" from_taz="" to_taz="8" stat="into" flag="True" from="224384035#0" to="-364480069" direction="into" depart="18180" end="50820">
    <stop parkingArea="parkingArea_88559691#4_0_101" duration="25440"/>
  </trip>
  <trip id="8309" trip_type="off" type="off" color="1,1,0" from_taz="" to_taz="8" stat="into" flag="True" from="8915254" to="-283537552#0" direction="into" depart="18180" end="54900">
    <stop parkingArea="parkingArea_-p4#0_0_102" duration="29520"/>
  </trip>
  <trip id="8757" trip_type="off" type="off" color="1,1,0" from_taz="" to_taz="8" stat="into" flag="True" from="8915254" to="91181771#3" direction="into" depart="18180" end="53100">
    <stop parkingArea="parkingArea_254299142#3_0_103" duration="28324"/>
  </trip>
  <trip id="10625" trip_type="off" type="off" color="1,1,0" from_taz="" to_taz="40" stat="into" flag="True" from="-206679802#4" to="255330036#9" direction="into" depart="18180" end="44580">
    <stop parkingArea="parkingArea_88466055#0_0_43" duration="23389"/>
  </trip>
  <trip id="11753" trip_type="off" type="off" color="1,1,0" from_taz="" to_taz="8" stat="into" flag="True" from="-206662304#13" to="111319423" direction="into" depart="18180" end="43920">
    <stop parkingArea="parkingArea_-p4#0_0_102" duration="18540"/>
  </trip>
  <trip id="12043" trip_type="off" type="off" color="1,1,0" from_taz="" to_taz="32" stat="into" flag="True" from="8916792" to="91181774#0" direction="into" depart="18180" end="46260">
    <stop parkingArea="parkingArea_224316514#0_0_261" duration="20880"/>
  </trip>
  <trip id="12593" trip_type="off" type="off" color="1,1,0" from_taz="" to_taz="8" stat="into" flag="True" from="191296172#0" to="99231482" direction="into" depart="18180" end="67860">
    <stop parkingArea="parkingArea_88559691#4_0_101" duration="43948"/>
  </trip>
  <trip id="13953" trip_type="off" type="off" color="1,1,0" from_taz="" to_taz="8" stat="into" flag="True" from="-24310636#2" to="-8917425" direction="into" depart="18180" end="36360">
    <stop parkingArea="parkingArea_120256350#3_0_52" duration="14301"/>
  </trip>
  <trip id="16444" trip_type="off" type="off" color="1,1,0" from_taz="" to_taz="32" stat="into" flag="True" from="-133755930#1" to="133733593#1" direction="into" depart="18180" end="69480">
    <stop parkingArea="parkingArea_254306572#0_0_247" duration="44100"/>
  </trip>
  <trip id="18357" trip_type="off" type="off" color="1,1,0" from_taz="" to_taz="43" stat="into" flag="True" from="31129765" to="287958606#0" direction="into" depart="18180" end="47040">
    <stop parkingArea="parkingArea_287958607#2_0_249" duration="21660"/>
  </trip>
  <trip id="294" trip_type="off" type="off" color="1,1,0" from_taz="" to_taz="33" stat="into" flag="True" from="225806031#0" to="143617589#0" direction="into" depart="18240" end="25740">
    <stop parkingArea="parkingArea_255330036#3_0_122" duration="4922"/>
  </trip>
  <trip id="2087" trip_type="off" type="off" color="1,1,0" from_taz="" to_taz="7" stat="into" flag="True" from="-254758120#3" to="228202845#2" direction="into" depart="18240" end="25500">
    <stop parkingArea="parkingArea_144489134#3_0_270" duration="5952"/>
  </trip>